1



                                 *********************************************

                                    NUMERICAL ELECTROMAGNETICS CODE (NEC-2D)

                                 *********************************************




                                     - - - - COMMENTS - - - -


                          A vertical dipole array, 2 element                                         
                          		                                                                         
                                                                                                     
                                                                                                     
                                                                                                     
                                                                                                     
                                                                                                     




                                 - - - STRUCTURE SPECIFICATION - - -

                                     COORDINATES MUST BE INPUT IN
                                     METERS OR BE SCALED TO METERS
                                     BEFORE STRUCTURE INPUT IS ENDED


  WIRE                                                                               NO. OF    FIRST  LAST     TAG
  NO.        X1         Y1         Z1          X2         Y2         Z2      RADIUS   SEG.     SEG.   SEG.     NO.
     1    9.99335    0.00000   -4.99667     9.99335    0.00000    4.99667    0.00005     21        1    21       2
     2    0.00000    0.00000   -4.99667     0.00000    0.00000    4.99667    0.00005     21       22    42       1

   TOTAL SEGMENTS USED=   42     NO. SEG. IN A SYMMETRIC CELL=   42     SYMMETRY FLAG=  0


         - MULTIPLE WIRE JUNCTIONS -
 JUNCTION    SEGMENTS  (- FOR END 1, + FOR END 2)
  NONE




                                 - - - - SEGMENTATION DATA - - - -

                                        COORDINATES IN METERS

                         I+ AND I- INDICATE THE SEGMENTS BEFORE AND AFTER I


  SEG.   COORDINATES OF SEG. CENTER     SEG.     ORIENTATION ANGLES    WIRE    CONNECTION DATA   TAG
  NO.       X         Y         Z       LENGTH     ALPHA     BETA      RADIUS    I-   I    I+    NO.
     1   9.99335   0.00000  -4.75874   0.47587   90.00000   0.00000   0.00005     0    1    2      2
     2   9.99335   0.00000  -4.28286   0.47587   90.00000   0.00000   0.00005     1    2    3      2
     3   9.99335   0.00000  -3.80699   0.47587   90.00000   0.00000   0.00005     2    3    4      2
     4   9.99335   0.00000  -3.33112   0.47587   90.00000   0.00000   0.00005     3    4    5      2
     5   9.99335   0.00000  -2.85524   0.47587   90.00000   0.00000   0.00005     4    5    6      2
     6   9.99335   0.00000  -2.37937   0.47587   90.00000   0.00000   0.00005     5    6    7      2
     7   9.99335   0.00000  -1.90350   0.47587   90.00000   0.00000   0.00005     6    7    8      2
     8   9.99335   0.00000  -1.42762   0.47587   90.00000   0.00000   0.00005     7    8    9      2
     9   9.99335   0.00000  -0.95175   0.47587   90.00000   0.00000   0.00005     8    9   10      2
    10   9.99335   0.00000  -0.47587   0.47587   90.00000   0.00000   0.00005     9   10   11      2
    11   9.99335   0.00000   0.00000   0.47587   90.00000   0.00000   0.00005    10   11   12      2
    12   9.99335   0.00000   0.47587   0.47587   90.00000   0.00000   0.00005    11   12   13      2
    13   9.99335   0.00000   0.95175   0.47587   90.00000   0.00000   0.00005    12   13   14      2
    14   9.99335   0.00000   1.42762   0.47587   90.00000   0.00000   0.00005    13   14   15      2
    15   9.99335   0.00000   1.90350   0.47587   90.00000   0.00000   0.00005    14   15   16      2
    16   9.99335   0.00000   2.37937   0.47587   90.00000   0.00000   0.00005    15   16   17      2
    17   9.99335   0.00000   2.85524   0.47587   90.00000   0.00000   0.00005    16   17   18      2
    18   9.99335   0.00000   3.33112   0.47587   90.00000   0.00000   0.00005    17   18   19      2
    19   9.99335   0.00000   3.80699   0.47587   90.00000   0.00000   0.00005    18   19   20      2
    20   9.99335   0.00000   4.28286   0.47587   90.00000   0.00000   0.00005    19   20   21      2
    21   9.99335   0.00000   4.75874   0.47587   90.00000   0.00000   0.00005    20   21    0      2
    22   0.00000   0.00000  -4.75874   0.47587   90.00000   0.00000   0.00005     0   22   23      1
    23   0.00000   0.00000  -4.28286   0.47587   90.00000   0.00000   0.00005    22   23   24      1
    24   0.00000   0.00000  -3.80699   0.47587   90.00000   0.00000   0.00005    23   24   25      1
    25   0.00000   0.00000  -3.33112   0.47587   90.00000   0.00000   0.00005    24   25   26      1
    26   0.00000   0.00000  -2.85524   0.47587   90.00000   0.00000   0.00005    25   26   27      1
    27   0.00000   0.00000  -2.37937   0.47587   90.00000   0.00000   0.00005    26   27   28      1
    28   0.00000   0.00000  -1.90350   0.47587   90.00000   0.00000   0.00005    27   28   29      1
    29   0.00000   0.00000  -1.42762   0.47587   90.00000   0.00000   0.00005    28   29   30      1
    30   0.00000   0.00000  -0.95175   0.47587   90.00000   0.00000   0.00005    29   30   31      1
    31   0.00000   0.00000  -0.47587   0.47587   90.00000   0.00000   0.00005    30   31   32      1
    32   0.00000   0.00000   0.00000   0.47587   90.00000   0.00000   0.00005    31   32   33      1
    33   0.00000   0.00000   0.47587   0.47587   90.00000   0.00000   0.00005    32   33   34      1
    34   0.00000   0.00000   0.95175   0.47587   90.00000   0.00000   0.00005    33   34   35      1
    35   0.00000   0.00000   1.42762   0.47587   90.00000   0.00000   0.00005    34   35   36      1
    36   0.00000   0.00000   1.90350   0.47587   90.00000   0.00000   0.00005    35   36   37      1
    37   0.00000   0.00000   2.37937   0.47587   90.00000   0.00000   0.00005    36   37   38      1
    38   0.00000   0.00000   2.85524   0.47587   90.00000   0.00000   0.00005    37   38   39      1
    39   0.00000   0.00000   3.33112   0.47587   90.00000   0.00000   0.00005    38   39   40      1
    40   0.00000   0.00000   3.80699   0.47587   90.00000   0.00000   0.00005    39   40   41      1
    41   0.00000   0.00000   4.28286   0.47587   90.00000   0.00000   0.00005    40   41   42      1
    42   0.00000   0.00000   4.75874   0.47587   90.00000   0.00000   0.00005    41   42    0      1






 ***** DATA CARD NO.  1   GN  -1     0     0     0  0.00000E+00  0.00000E+00  0.00000E+00  0.00000E+00  0.00000E+00  0.00000E+00
 ***** DATA CARD NO.  2   EK   0     0     0     0  0.00000E+00  0.00000E+00  0.00000E+00  0.00000E+00  0.00000E+00  0.00000E+00
 ***** DATA CARD NO.  3   EX   0     1    11     0  1.00000E+00  0.00000E+00  0.00000E+00  0.00000E+00  0.00000E+00  0.00000E+00
 ***** DATA CARD NO.  4   NT   1    11     2    11  0.00000E+00  0.00000E+00  0.00000E+00  0.00000E+00  0.00000E+00  0.00000E+00
 ***** DATA CARD NO.  5   FR   0     0     0     0  1.50100E+01  0.00000E+00  0.00000E+00  0.00000E+00  0.00000E+00  0.00000E+00
 ***** DATA CARD NO.  6   RP   0    37    73  1003 -1.80000E+02  0.00000E+00  5.00000E+00  5.00000E+00  0.00000E+00  0.00000E+00




                                 - - - - - - FREQUENCY - - - - - -

                                    FREQUENCY= 1.5010E+01 MHZ
                                    WAVELENGTH= 1.9973E+01 METERS




                    APPROXIMATE INTEGRATION EMPLOYED FOR SEGMENTS MORE THAN   1.000 WAVELENGTHS APART

                    THE EXTENDED THIN WIRE KERNEL WILL BE USED



                               - - - STRUCTURE IMPEDANCE LOADING - - -

                                   THIS STRUCTURE IS NOT LOADED



                                  - - - ANTENNA ENVIRONMENT - - -

                                            FREE SPACE



                                - - - MATRIX TIMING - - -

                        FILL=    0.016 SEC.,  FACTOR=    0.000 SEC.



                                            - - - NETWORK DATA - - -

      - FROM -    - TO -                          -  -  ADMITTANCE MATRIX ELEMENTS (MHOS)  -  -
      TAG  SEG.   TAG  SEG.             (ONE,ONE)                   (ONE,TWO)                   (TWO,TWO)
      NO.   NO.   NO.   NO.        REAL          IMAG.         REAL          IMAG.         REAL          IMAG.
        1    32     2    11     0.0000E+00    0.0000E+00    0.0000E+00    0.0000E+00    0.0000E+00    0.0000E+00           



                           - - - STRUCTURE EXCITATION DATA AT NETWORK CONNECTION POINTS - - -

   TAG   SEG.    VOLTAGE (VOLTS)         CURRENT (AMPS)         IMPEDANCE (OHMS)        ADMITTANCE (MHOS)      POWER
   NO.   NO.    REAL        IMAG.       REAL        IMAG.       REAL        IMAG.       REAL        IMAG.     (WATTS)
     2    11-3.15963E-01-2.11816E-01 2.67982E-17 1.08276E-18-1.20901E+16-7.41563E+15-6.01014E-17 3.68642E-17-4.34830E-18
     1    32 1.00000E+00 0.00000E+00 9.59160E-03-5.64290E-03 7.74508E+01 4.55657E+01 9.59160E-03-5.64290E-03 4.79580E-03



                                          - - - ANTENNA INPUT PARAMETERS - - -

   TAG   SEG.    VOLTAGE (VOLTS)         CURRENT (AMPS)         IMPEDANCE (OHMS)        ADMITTANCE (MHOS)      POWER
   NO.   NO.    REAL        IMAG.       REAL        IMAG.       REAL        IMAG.       REAL        IMAG.     (WATTS)
     1    32 1.00000E+00 0.00000E+00 9.59160E-03-5.64290E-03 7.74508E+01 4.55657E+01 9.59160E-03-5.64290E-03 4.79580E-03



                             - - - CURRENTS AND LOCATION - - -

                                 DISTANCES IN WAVELENGTHS


  SEG.  TAG    COORD. OF SEG. CENTER     SEG.            - - - CURRENT (AMPS) - - -
  NO.   NO.     X        Y        Z      LENGTH     REAL        IMAG.       MAG.        PHASE
     1    2   0.5003   0.0000  -0.2383  0.02383  -1.1855E-05  1.9190E-05  2.2557E-05  121.707
     2    2   0.5003   0.0000  -0.2144  0.02383  -3.1648E-05  5.0629E-05  5.9707E-05  122.009
     3    2   0.5003   0.0000  -0.1906  0.02383  -4.7170E-05  7.4643E-05  8.8298E-05  122.291
     4    2   0.5003   0.0000  -0.1668  0.02383  -5.8376E-05  9.1453E-05  1.0850E-04  122.551
     5    2   0.5003   0.0000  -0.1430  0.02383  -6.4942E-05  1.0081E-04  1.1991E-04  122.791
     6    2   0.5003   0.0000  -0.1191  0.02383  -6.6568E-05  1.0247E-04  1.2219E-04  123.010
     7    2   0.5003   0.0000  -0.0953  0.02383  -6.3023E-05  9.6270E-05  1.1506E-04  123.211
     8    2   0.5003   0.0000  -0.0715  0.02383  -5.4145E-05  8.2142E-05  9.8382E-05  123.391
     9    2   0.5003   0.0000  -0.0477  0.02383  -3.9793E-05  6.0004E-05  7.2000E-05  123.552
    10    2   0.5003   0.0000  -0.0238  0.02383  -1.9569E-05  2.9357E-05  3.5281E-05  123.687
    11    2   0.5003   0.0000   0.0000  0.02383   2.6798E-17  1.0828E-18  2.6820E-17    2.314
    12    2   0.5003   0.0000   0.0238  0.02383  -1.9569E-05  2.9357E-05  3.5281E-05  123.687
    13    2   0.5003   0.0000   0.0477  0.02383  -3.9793E-05  6.0004E-05  7.2000E-05  123.552
    14    2   0.5003   0.0000   0.0715  0.02383  -5.4145E-05  8.2142E-05  9.8382E-05  123.391
    15    2   0.5003   0.0000   0.0953  0.02383  -6.3023E-05  9.6270E-05  1.1506E-04  123.211
    16    2   0.5003   0.0000   0.1191  0.02383  -6.6568E-05  1.0247E-04  1.2219E-04  123.010
    17    2   0.5003   0.0000   0.1430  0.02383  -6.4942E-05  1.0081E-04  1.1991E-04  122.791
    18    2   0.5003   0.0000   0.1668  0.02383  -5.8376E-05  9.1453E-05  1.0850E-04  122.551
    19    2   0.5003   0.0000   0.1906  0.02383  -4.7170E-05  7.4643E-05  8.8298E-05  122.291
    20    2   0.5003   0.0000   0.2144  0.02383  -3.1648E-05  5.0629E-05  5.9707E-05  122.009
    21    2   0.5003   0.0000   0.2383  0.02383  -1.1855E-05  1.9190E-05  2.2557E-05  121.707
    22    1   0.0000   0.0000  -0.2383  0.02383   8.0047E-04 -5.3066E-04  9.6039E-04  -33.542
    23    1   0.0000   0.0000  -0.2144  0.02383   2.2760E-03 -1.4970E-03  2.7242E-03  -33.334
    24    1   0.0000   0.0000  -0.1906  0.02383   3.6513E-03 -2.3816E-03  4.3593E-03  -33.115
    25    1   0.0000   0.0000  -0.1668  0.02383   4.9288E-03 -3.1863E-03  5.8690E-03  -32.882
    26    1   0.0000   0.0000  -0.1430  0.02383   6.0899E-03 -3.8993E-03  7.2313E-03  -32.631
    27    1   0.0000   0.0000  -0.1191  0.02383   7.1139E-03 -4.5075E-03  8.4217E-03  -32.359
    28    1   0.0000   0.0000  -0.0953  0.02383   7.9813E-03 -4.9988E-03  9.4175E-03  -32.060
    29    1   0.0000   0.0000  -0.0715  0.02383   8.6749E-03 -5.3627E-03  1.0199E-02  -31.724
    30    1   0.0000   0.0000  -0.0477  0.02383   9.1806E-03 -5.5906E-03  1.0749E-02  -31.340
    31    1   0.0000   0.0000  -0.0238  0.02383   9.4883E-03 -5.6750E-03  1.1056E-02  -30.884
    32    1   0.0000   0.0000   0.0000  0.02383   9.5916E-03 -5.6429E-03  1.1128E-02  -30.469
    33    1   0.0000   0.0000   0.0238  0.02383   9.4883E-03 -5.6750E-03  1.1056E-02  -30.884
    34    1   0.0000   0.0000   0.0477  0.02383   9.1806E-03 -5.5906E-03  1.0749E-02  -31.340
    35    1   0.0000   0.0000   0.0715  0.02383   8.6749E-03 -5.3627E-03  1.0199E-02  -31.724
    36    1   0.0000   0.0000   0.0953  0.02383   7.9813E-03 -4.9988E-03  9.4175E-03  -32.060
    37    1   0.0000   0.0000   0.1191  0.02383   7.1139E-03 -4.5075E-03  8.4217E-03  -32.359
    38    1   0.0000   0.0000   0.1430  0.02383   6.0899E-03 -3.8993E-03  7.2313E-03  -32.631
    39    1   0.0000   0.0000   0.1668  0.02383   4.9288E-03 -3.1863E-03  5.8690E-03  -32.882
    40    1   0.0000   0.0000   0.1906  0.02383   3.6513E-03 -2.3816E-03  4.3593E-03  -33.115
    41    1   0.0000   0.0000   0.2144  0.02383   2.2760E-03 -1.4970E-03  2.7242E-03  -33.334
    42    1   0.0000   0.0000   0.2383  0.02383   8.0047E-04 -5.3066E-04  9.6039E-04  -33.542



                                        - - - POWER BUDGET - - -

                                           INPUT POWER   = 4.7958E-03 WATTS
                                           RADIATED POWER= 4.7958E-03 WATTS
                                           STRUCTURE LOSS= 0.0000E+00 WATTS
                                           NETWORK LOSS  = 4.3368E-18 WATTS
                                           EFFICIENCY    = 100.00 PERCENT



                                                - - - RADIATION PATTERNS - - -

  - - ANGLES - -           - POWER GAINS -       - - - POLARIZATION - - -    - - - E(THETA) - - -    - - - E(PHI) - - -
  THETA     PHI        VERT.   HOR.    TOTAL      AXIAL     TILT   SENSE     MAGNITUDE    PHASE      MAGNITUDE    PHASE 
 DEGREES  DEGREES       DB      DB      DB        RATIO     DEG.              VOLTS/M    DEGREES      VOLTS/M    DEGREES
 -180.00     0.00    -999.99 -999.99 -999.99    0.00000     0.00            5.41437E-12    58.55    0.00000E+00     0.00
 -175.00     0.00     -21.26 -999.99  -21.26    0.00000     0.00  LINEAR    4.63885E-02  -121.33    0.00000E+00     0.00
 -170.00     0.00     -15.20 -999.99  -15.20    0.00000     0.00  LINEAR    9.31396E-02  -121.24    0.00000E+00     0.00
 -165.00     0.00     -11.64 -999.99  -11.64    0.00000     0.00  LINEAR    1.40459E-01  -121.18    0.00000E+00     0.00
 -160.00     0.00      -9.08 -999.99   -9.08    0.00000     0.00  LINEAR    1.88463E-01  -121.16    0.00000E+00     0.00
 -155.00     0.00      -7.09 -999.99   -7.09    0.00000     0.00  LINEAR    2.37142E-01  -121.18    0.00000E+00     0.00
 -150.00     0.00      -5.45 -999.99   -5.45    0.00000     0.00  LINEAR    2.86348E-01  -121.24    0.00000E+00     0.00
 -145.00     0.00      -4.07 -999.99   -4.07    0.00000     0.00  LINEAR    3.35774E-01  -121.32    0.00000E+00     0.00
 -140.00     0.00      -2.88 -999.99   -2.88    0.00000     0.00  LINEAR    3.84958E-01  -121.42    0.00000E+00     0.00
 -135.00     0.00      -1.85 -999.99   -1.85    0.00000     0.00  LINEAR    4.33290E-01  -121.53    0.00000E+00     0.00
 -130.00     0.00      -0.96 -999.99   -0.96    0.00000     0.00  LINEAR    4.80030E-01  -121.65    0.00000E+00     0.00
 -125.00     0.00      -0.19 -999.99   -0.19    0.00000     0.00  LINEAR    5.24337E-01  -121.76    0.00000E+00     0.00
 -120.00     0.00       0.46 -999.99    0.46    0.00000     0.00  LINEAR    5.65303E-01  -121.86    0.00000E+00     0.00
 -115.00     0.00       1.00 -999.99    1.00    0.00000     0.00  LINEAR    6.01995E-01  -121.95    0.00000E+00     0.00
 -110.00     0.00       1.45 -999.99    1.45    0.00000     0.00  LINEAR    6.33505E-01  -122.03    0.00000E+00     0.00
 -105.00     0.00       1.79 -999.99    1.79    0.00000     0.00  LINEAR    6.58997E-01  -122.09    0.00000E+00     0.00
 -100.00     0.00       2.03 -999.99    2.03    0.00000     0.00  LINEAR    6.77760E-01  -122.13    0.00000E+00     0.00
  -95.00     0.00       2.18 -999.99    2.18    0.00000     0.00  LINEAR    6.89247E-01  -122.16    0.00000E+00     0.00
  -90.00     0.00       2.23 -999.99    2.23    0.00000     0.00  LINEAR    6.93114E-01  -122.17    0.00000E+00     0.00
  -85.00     0.00       2.18 -999.99    2.18    0.00000     0.00  LINEAR    6.89247E-01  -122.16    0.00000E+00     0.00
  -80.00     0.00       2.03 -999.99    2.03    0.00000     0.00  LINEAR    6.77760E-01  -122.13    0.00000E+00     0.00
  -75.00     0.00       1.79 -999.99    1.79    0.00000     0.00  LINEAR    6.58997E-01  -122.09    0.00000E+00     0.00
  -70.00     0.00       1.45 -999.99    1.45    0.00000     0.00  LINEAR    6.33505E-01  -122.03    0.00000E+00     0.00
  -65.00     0.00       1.00 -999.99    1.00    0.00000     0.00  LINEAR    6.01995E-01  -121.95    0.00000E+00     0.00
  -60.00     0.00       0.46 -999.99    0.46    0.00000     0.00  LINEAR    5.65303E-01  -121.86    0.00000E+00     0.00
  -55.00     0.00      -0.19 -999.99   -0.19    0.00000     0.00  LINEAR    5.24337E-01  -121.76    0.00000E+00     0.00
  -50.00     0.00      -0.96 -999.99   -0.96    0.00000     0.00  LINEAR    4.80030E-01  -121.65    0.00000E+00     0.00
  -45.00     0.00      -1.85 -999.99   -1.85    0.00000     0.00  LINEAR    4.33290E-01  -121.53    0.00000E+00     0.00
  -40.00     0.00      -2.88 -999.99   -2.88    0.00000     0.00  LINEAR    3.84958E-01  -121.42    0.00000E+00     0.00
  -35.00     0.00      -4.07 -999.99   -4.07    0.00000     0.00  LINEAR    3.35774E-01  -121.32    0.00000E+00     0.00
  -30.00     0.00      -5.45 -999.99   -5.45    0.00000     0.00  LINEAR    2.86348E-01  -121.24    0.00000E+00     0.00
  -25.00     0.00      -7.09 -999.99   -7.09    0.00000     0.00  LINEAR    2.37142E-01  -121.18    0.00000E+00     0.00
  -20.00     0.00      -9.08 -999.99   -9.08    0.00000     0.00  LINEAR    1.88463E-01  -121.16    0.00000E+00     0.00
  -15.00     0.00     -11.64 -999.99  -11.64    0.00000     0.00  LINEAR    1.40459E-01  -121.18    0.00000E+00     0.00
  -10.00     0.00     -15.20 -999.99  -15.20    0.00000     0.00  LINEAR    9.31396E-02  -121.24    0.00000E+00     0.00
   -5.00     0.00     -21.26 -999.99  -21.26    0.00000     0.00  LINEAR    4.63885E-02  -121.33    0.00000E+00     0.00
    0.00     0.00    -999.99 -999.99 -999.99    0.00000     0.00            0.00000E+00     0.00    0.00000E+00     0.00
 -180.00     5.00    -999.99 -999.99 -999.99    0.00000     0.00            5.41437E-12    58.55    0.00000E+00     0.00
 -175.00     5.00     -21.26 -999.99  -21.26    0.00000     0.00  LINEAR    4.63882E-02  -121.33    0.00000E+00     0.00
 -170.00     5.00     -15.20 -999.99  -15.20    0.00000     0.00  LINEAR    9.31381E-02  -121.24    0.00000E+00     0.00
 -165.00     5.00     -11.64 -999.99  -11.64    0.00000     0.00  LINEAR    1.40456E-01  -121.18    0.00000E+00     0.00
 -160.00     5.00      -9.08 -999.99   -9.08    0.00000     0.00  LINEAR    1.88455E-01  -121.16    0.00000E+00     0.00
 -155.00     5.00      -7.09 -999.99   -7.09    0.00000     0.00  LINEAR    2.37131E-01  -121.18    0.00000E+00     0.00
 -150.00     5.00      -5.45 -999.99   -5.45    0.00000     0.00  LINEAR    2.86333E-01  -121.23    0.00000E+00     0.00
 -145.00     5.00      -4.07 -999.99   -4.07    0.00000     0.00  LINEAR    3.35756E-01  -121.31    0.00000E+00     0.00
 -140.00     5.00      -2.88 -999.99   -2.88    0.00000     0.00  LINEAR    3.84939E-01  -121.41    0.00000E+00     0.00
 -135.00     5.00      -1.85 -999.99   -1.85    0.00000     0.00  LINEAR    4.33273E-01  -121.53    0.00000E+00     0.00
 -130.00     5.00      -0.96 -999.99   -0.96    0.00000     0.00  LINEAR    4.80017E-01  -121.64    0.00000E+00     0.00
 -125.00     5.00      -0.20 -999.99   -0.20    0.00000     0.00  LINEAR    5.24330E-01  -121.75    0.00000E+00     0.00
 -120.00     5.00       0.46 -999.99    0.46    0.00000     0.00  LINEAR    5.65304E-01  -121.86    0.00000E+00     0.00
 -115.00     5.00       1.00 -999.99    1.00    0.00000     0.00  LINEAR    6.02005E-01  -121.95    0.00000E+00     0.00
 -110.00     5.00       1.45 -999.99    1.45    0.00000     0.00  LINEAR    6.33523E-01  -122.02    0.00000E+00     0.00
 -105.00     5.00       1.79 -999.99    1.79    0.00000     0.00  LINEAR    6.59024E-01  -122.08    0.00000E+00     0.00
 -100.00     5.00       2.03 -999.99    2.03    0.00000     0.00  LINEAR    6.77792E-01  -122.13    0.00000E+00     0.00
  -95.00     5.00       2.18 -999.99    2.18    0.00000     0.00  LINEAR    6.89283E-01  -122.15    0.00000E+00     0.00
  -90.00     5.00       2.23 -999.99    2.23    0.00000     0.00  LINEAR    6.93152E-01  -122.16    0.00000E+00     0.00
  -85.00     5.00       2.18 -999.99    2.18    0.00000     0.00  LINEAR    6.89283E-01  -122.15    0.00000E+00     0.00
  -80.00     5.00       2.03 -999.99    2.03    0.00000     0.00  LINEAR    6.77792E-01  -122.13    0.00000E+00     0.00
  -75.00     5.00       1.79 -999.99    1.79    0.00000     0.00  LINEAR    6.59024E-01  -122.08    0.00000E+00     0.00
  -70.00     5.00       1.45 -999.99    1.45    0.00000     0.00  LINEAR    6.33523E-01  -122.02    0.00000E+00     0.00
  -65.00     5.00       1.00 -999.99    1.00    0.00000     0.00  LINEAR    6.02005E-01  -121.95    0.00000E+00     0.00
  -60.00     5.00       0.46 -999.99    0.46    0.00000     0.00  LINEAR    5.65304E-01  -121.86    0.00000E+00     0.00
  -55.00     5.00      -0.20 -999.99   -0.20    0.00000     0.00  LINEAR    5.24330E-01  -121.75    0.00000E+00     0.00
  -50.00     5.00      -0.96 -999.99   -0.96    0.00000     0.00  LINEAR    4.80017E-01  -121.64    0.00000E+00     0.00
  -45.00     5.00      -1.85 -999.99   -1.85    0.00000     0.00  LINEAR    4.33273E-01  -121.53    0.00000E+00     0.00
  -40.00     5.00      -2.88 -999.99   -2.88    0.00000     0.00  LINEAR    3.84939E-01  -121.41    0.00000E+00     0.00
  -35.00     5.00      -4.07 -999.99   -4.07    0.00000     0.00  LINEAR    3.35756E-01  -121.31    0.00000E+00     0.00
  -30.00     5.00      -5.45 -999.99   -5.45    0.00000     0.00  LINEAR    2.86333E-01  -121.23    0.00000E+00     0.00
  -25.00     5.00      -7.09 -999.99   -7.09    0.00000     0.00  LINEAR    2.37131E-01  -121.18    0.00000E+00     0.00
  -20.00     5.00      -9.08 -999.99   -9.08    0.00000     0.00  LINEAR    1.88455E-01  -121.16    0.00000E+00     0.00
  -15.00     5.00     -11.64 -999.99  -11.64    0.00000     0.00  LINEAR    1.40456E-01  -121.18    0.00000E+00     0.00
  -10.00     5.00     -15.20 -999.99  -15.20    0.00000     0.00  LINEAR    9.31381E-02  -121.24    0.00000E+00     0.00
   -5.00     5.00     -21.26 -999.99  -21.26    0.00000     0.00  LINEAR    4.63882E-02  -121.33    0.00000E+00     0.00
    0.00     5.00    -999.99 -999.99 -999.99    0.00000     0.00            0.00000E+00     0.00    0.00000E+00     0.00
 -180.00    10.00    -999.99 -999.99 -999.99    0.00000     0.00            5.41437E-12    58.55    0.00000E+00     0.00
 -175.00    10.00     -21.26 -999.99  -21.26    0.00000     0.00  LINEAR    4.63873E-02  -121.33    0.00000E+00     0.00
 -170.00    10.00     -15.20 -999.99  -15.20    0.00000     0.00  LINEAR    9.31335E-02  -121.24    0.00000E+00     0.00
 -165.00    10.00     -11.64 -999.99  -11.64    0.00000     0.00  LINEAR    1.40444E-01  -121.18    0.00000E+00     0.00
 -160.00    10.00      -9.08 -999.99   -9.08    0.00000     0.00  LINEAR    1.88434E-01  -121.16    0.00000E+00     0.00
 -155.00    10.00      -7.09 -999.99   -7.09    0.00000     0.00  LINEAR    2.37097E-01  -121.18    0.00000E+00     0.00
 -150.00    10.00      -5.45 -999.99   -5.45    0.00000     0.00  LINEAR    2.86288E-01  -121.23    0.00000E+00     0.00
 -145.00    10.00      -4.07 -999.99   -4.07    0.00000     0.00  LINEAR    3.35703E-01  -121.31    0.00000E+00     0.00
 -140.00    10.00      -2.88 -999.99   -2.88    0.00000     0.00  LINEAR    3.84883E-01  -121.40    0.00000E+00     0.00
 -135.00    10.00      -1.85 -999.99   -1.85    0.00000     0.00  LINEAR    4.33220E-01  -121.51    0.00000E+00     0.00
 -130.00    10.00      -0.96 -999.99   -0.96    0.00000     0.00  LINEAR    4.79976E-01  -121.63    0.00000E+00     0.00
 -125.00    10.00      -0.20 -999.99   -0.20    0.00000     0.00  LINEAR    5.24307E-01  -121.74    0.00000E+00     0.00
 -120.00    10.00       0.46 -999.99    0.46    0.00000     0.00  LINEAR    5.65303E-01  -121.84    0.00000E+00     0.00
 -115.00    10.00       1.01 -999.99    1.01    0.00000     0.00  LINEAR    6.02029E-01  -121.93    0.00000E+00     0.00
 -110.00    10.00       1.45 -999.99    1.45    0.00000     0.00  LINEAR    6.33573E-01  -122.00    0.00000E+00     0.00
 -105.00    10.00       1.79 -999.99    1.79    0.00000     0.00  LINEAR    6.59097E-01  -122.06    0.00000E+00     0.00
 -100.00    10.00       2.04 -999.99    2.04    0.00000     0.00  LINEAR    6.77884E-01  -122.11    0.00000E+00     0.00
  -95.00    10.00       2.18 -999.99    2.18    0.00000     0.00  LINEAR    6.89386E-01  -122.13    0.00000E+00     0.00
  -90.00    10.00       2.23 -999.99    2.23    0.00000     0.00  LINEAR    6.93259E-01  -122.14    0.00000E+00     0.00
  -85.00    10.00       2.18 -999.99    2.18    0.00000     0.00  LINEAR    6.89386E-01  -122.13    0.00000E+00     0.00
  -80.00    10.00       2.04 -999.99    2.04    0.00000     0.00  LINEAR    6.77884E-01  -122.11    0.00000E+00     0.00
  -75.00    10.00       1.79 -999.99    1.79    0.00000     0.00  LINEAR    6.59097E-01  -122.06    0.00000E+00     0.00
  -70.00    10.00       1.45 -999.99    1.45    0.00000     0.00  LINEAR    6.33573E-01  -122.00    0.00000E+00     0.00
  -65.00    10.00       1.01 -999.99    1.01    0.00000     0.00  LINEAR    6.02029E-01  -121.93    0.00000E+00     0.00
  -60.00    10.00       0.46 -999.99    0.46    0.00000     0.00  LINEAR    5.65303E-01  -121.84    0.00000E+00     0.00
  -55.00    10.00      -0.20 -999.99   -0.20    0.00000     0.00  LINEAR    5.24307E-01  -121.74    0.00000E+00     0.00
  -50.00    10.00      -0.96 -999.99   -0.96    0.00000     0.00  LINEAR    4.79976E-01  -121.63    0.00000E+00     0.00
  -45.00    10.00      -1.85 -999.99   -1.85    0.00000     0.00  LINEAR    4.33220E-01  -121.51    0.00000E+00     0.00
  -40.00    10.00      -2.88 -999.99   -2.88    0.00000     0.00  LINEAR    3.84883E-01  -121.40    0.00000E+00     0.00
  -35.00    10.00      -4.07 -999.99   -4.07    0.00000     0.00  LINEAR    3.35703E-01  -121.31    0.00000E+00     0.00
  -30.00    10.00      -5.45 -999.99   -5.45    0.00000     0.00  LINEAR    2.86288E-01  -121.23    0.00000E+00     0.00
  -25.00    10.00      -7.09 -999.99   -7.09    0.00000     0.00  LINEAR    2.37097E-01  -121.18    0.00000E+00     0.00
  -20.00    10.00      -9.08 -999.99   -9.08    0.00000     0.00  LINEAR    1.88434E-01  -121.16    0.00000E+00     0.00
  -15.00    10.00     -11.64 -999.99  -11.64    0.00000     0.00  LINEAR    1.40444E-01  -121.18    0.00000E+00     0.00
  -10.00    10.00     -15.20 -999.99  -15.20    0.00000     0.00  LINEAR    9.31335E-02  -121.24    0.00000E+00     0.00
   -5.00    10.00     -21.26 -999.99  -21.26    0.00000     0.00  LINEAR    4.63873E-02  -121.33    0.00000E+00     0.00
    0.00    10.00    -999.99 -999.99 -999.99    0.00000     0.00            0.00000E+00     0.00    0.00000E+00     0.00
 -180.00    15.00    -999.99 -999.99 -999.99    0.00000     0.00            5.41437E-12    58.55    0.00000E+00     0.00
 -175.00    15.00     -21.26 -999.99  -21.26    0.00000     0.00  LINEAR    4.63859E-02  -121.33    0.00000E+00     0.00
 -170.00    15.00     -15.21 -999.99  -15.21    0.00000     0.00  LINEAR    9.31260E-02  -121.24    0.00000E+00     0.00
 -165.00    15.00     -11.64 -999.99  -11.64    0.00000     0.00  LINEAR    1.40425E-01  -121.19    0.00000E+00     0.00
 -160.00    15.00      -9.09 -999.99   -9.09    0.00000     0.00  LINEAR    1.88397E-01  -121.16    0.00000E+00     0.00
 -155.00    15.00      -7.09 -999.99   -7.09    0.00000     0.00  LINEAR    2.37041E-01  -121.18    0.00000E+00     0.00
 -150.00    15.00      -5.45 -999.99   -5.45    0.00000     0.00  LINEAR    2.86212E-01  -121.22    0.00000E+00     0.00
 -145.00    15.00      -4.07 -999.99   -4.07    0.00000     0.00  LINEAR    3.35612E-01  -121.30    0.00000E+00     0.00
 -140.00    15.00      -2.88 -999.99   -2.88    0.00000     0.00  LINEAR    3.84786E-01  -121.39    0.00000E+00     0.00
 -135.00    15.00      -1.85 -999.99   -1.85    0.00000     0.00  LINEAR    4.33128E-01  -121.49    0.00000E+00     0.00
 -130.00    15.00      -0.96 -999.99   -0.96    0.00000     0.00  LINEAR    4.79899E-01  -121.60    0.00000E+00     0.00
 -125.00    15.00      -0.20 -999.99   -0.20    0.00000     0.00  LINEAR    5.24257E-01  -121.71    0.00000E+00     0.00
 -120.00    15.00       0.46 -999.99    0.46    0.00000     0.00  LINEAR    5.65289E-01  -121.81    0.00000E+00     0.00
 -115.00    15.00       1.01 -999.99    1.01    0.00000     0.00  LINEAR    6.02056E-01  -121.90    0.00000E+00     0.00
 -110.00    15.00       1.45 -999.99    1.45    0.00000     0.00  LINEAR    6.33640E-01  -121.97    0.00000E+00     0.00
 -105.00    15.00       1.79 -999.99    1.79    0.00000     0.00  LINEAR    6.59201E-01  -122.03    0.00000E+00     0.00
 -100.00    15.00       2.04 -999.99    2.04    0.00000     0.00  LINEAR    6.78017E-01  -122.07    0.00000E+00     0.00
  -95.00    15.00       2.18 -999.99    2.18    0.00000     0.00  LINEAR    6.89537E-01  -122.10    0.00000E+00     0.00
  -90.00    15.00       2.23 -999.99    2.23    0.00000     0.00  LINEAR    6.93417E-01  -122.11    0.00000E+00     0.00
  -85.00    15.00       2.18 -999.99    2.18    0.00000     0.00  LINEAR    6.89537E-01  -122.10    0.00000E+00     0.00
  -80.00    15.00       2.04 -999.99    2.04    0.00000     0.00  LINEAR    6.78017E-01  -122.07    0.00000E+00     0.00
  -75.00    15.00       1.79 -999.99    1.79    0.00000     0.00  LINEAR    6.59201E-01  -122.03    0.00000E+00     0.00
  -70.00    15.00       1.45 -999.99    1.45    0.00000     0.00  LINEAR    6.33640E-01  -121.97    0.00000E+00     0.00
  -65.00    15.00       1.01 -999.99    1.01    0.00000     0.00  LINEAR    6.02056E-01  -121.90    0.00000E+00     0.00
  -60.00    15.00       0.46 -999.99    0.46    0.00000     0.00  LINEAR    5.65289E-01  -121.81    0.00000E+00     0.00
  -55.00    15.00      -0.20 -999.99   -0.20    0.00000     0.00  LINEAR    5.24257E-01  -121.71    0.00000E+00     0.00
  -50.00    15.00      -0.96 -999.99   -0.96    0.00000     0.00  LINEAR    4.79899E-01  -121.60    0.00000E+00     0.00
  -45.00    15.00      -1.85 -999.99   -1.85    0.00000     0.00  LINEAR    4.33128E-01  -121.49    0.00000E+00     0.00
  -40.00    15.00      -2.88 -999.99   -2.88    0.00000     0.00  LINEAR    3.84786E-01  -121.39    0.00000E+00     0.00
  -35.00    15.00      -4.07 -999.99   -4.07    0.00000     0.00  LINEAR    3.35612E-01  -121.30    0.00000E+00     0.00
  -30.00    15.00      -5.45 -999.99   -5.45    0.00000     0.00  LINEAR    2.86212E-01  -121.22    0.00000E+00     0.00
  -25.00    15.00      -7.09 -999.99   -7.09    0.00000     0.00  LINEAR    2.37041E-01  -121.18    0.00000E+00     0.00
  -20.00    15.00      -9.09 -999.99   -9.09    0.00000     0.00  LINEAR    1.88397E-01  -121.16    0.00000E+00     0.00
  -15.00    15.00     -11.64 -999.99  -11.64    0.00000     0.00  LINEAR    1.40425E-01  -121.19    0.00000E+00     0.00
  -10.00    15.00     -15.21 -999.99  -15.21    0.00000     0.00  LINEAR    9.31260E-02  -121.24    0.00000E+00     0.00
   -5.00    15.00     -21.26 -999.99  -21.26    0.00000     0.00  LINEAR    4.63859E-02  -121.33    0.00000E+00     0.00
    0.00    15.00    -999.99 -999.99 -999.99    0.00000     0.00            0.00000E+00     0.00    0.00000E+00     0.00
 -180.00    20.00    -999.99 -999.99 -999.99    0.00000     0.00            5.41437E-12    58.55    0.00000E+00     0.00
 -175.00    20.00     -21.26 -999.99  -21.26    0.00000     0.00  LINEAR    4.63838E-02  -121.33    0.00000E+00     0.00
 -170.00    20.00     -15.21 -999.99  -15.21    0.00000     0.00  LINEAR    9.31157E-02  -121.25    0.00000E+00     0.00
 -165.00    20.00     -11.64 -999.99  -11.64    0.00000     0.00  LINEAR    1.40398E-01  -121.19    0.00000E+00     0.00
 -160.00    20.00      -9.09 -999.99   -9.09    0.00000     0.00  LINEAR    1.88347E-01  -121.17    0.00000E+00     0.00
 -155.00    20.00      -7.09 -999.99   -7.09    0.00000     0.00  LINEAR    2.36963E-01  -121.18    0.00000E+00     0.00
 -150.00    20.00      -5.46 -999.99   -5.46    0.00000     0.00  LINEAR    2.86105E-01  -121.22    0.00000E+00     0.00
 -145.00    20.00      -4.07 -999.99   -4.07    0.00000     0.00  LINEAR    3.35483E-01  -121.28    0.00000E+00     0.00
 -140.00    20.00      -2.89 -999.99   -2.89    0.00000     0.00  LINEAR    3.84645E-01  -121.37    0.00000E+00     0.00
 -135.00    20.00      -1.86 -999.99   -1.86    0.00000     0.00  LINEAR    4.32989E-01  -121.46    0.00000E+00     0.00
 -130.00    20.00      -0.97 -999.99   -0.97    0.00000     0.00  LINEAR    4.79778E-01  -121.57    0.00000E+00     0.00
 -125.00    20.00      -0.20 -999.99   -0.20    0.00000     0.00  LINEAR    5.24168E-01  -121.67    0.00000E+00     0.00
 -120.00    20.00       0.46 -999.99    0.46    0.00000     0.00  LINEAR    5.65244E-01  -121.76    0.00000E+00     0.00
 -115.00    20.00       1.01 -999.99    1.01    0.00000     0.00  LINEAR    6.02062E-01  -121.85    0.00000E+00     0.00
 -110.00    20.00       1.45 -999.99    1.45    0.00000     0.00  LINEAR    6.33699E-01  -121.92    0.00000E+00     0.00
 -105.00    20.00       1.79 -999.99    1.79    0.00000     0.00  LINEAR    6.59307E-01  -121.98    0.00000E+00     0.00
 -100.00    20.00       2.04 -999.99    2.04    0.00000     0.00  LINEAR    6.78161E-01  -122.02    0.00000E+00     0.00
  -95.00    20.00       2.19 -999.99    2.19    0.00000     0.00  LINEAR    6.89707E-01  -122.05    0.00000E+00     0.00
  -90.00    20.00       2.24 -999.99    2.24    0.00000     0.00  LINEAR    6.93595E-01  -122.06    0.00000E+00     0.00
  -85.00    20.00       2.19 -999.99    2.19    0.00000     0.00  LINEAR    6.89707E-01  -122.05    0.00000E+00     0.00
  -80.00    20.00       2.04 -999.99    2.04    0.00000     0.00  LINEAR    6.78161E-01  -122.02    0.00000E+00     0.00
  -75.00    20.00       1.79 -999.99    1.79    0.00000     0.00  LINEAR    6.59307E-01  -121.98    0.00000E+00     0.00
  -70.00    20.00       1.45 -999.99    1.45    0.00000     0.00  LINEAR    6.33699E-01  -121.92    0.00000E+00     0.00
  -65.00    20.00       1.01 -999.99    1.01    0.00000     0.00  LINEAR    6.02062E-01  -121.85    0.00000E+00     0.00
  -60.00    20.00       0.46 -999.99    0.46    0.00000     0.00  LINEAR    5.65244E-01  -121.76    0.00000E+00     0.00
  -55.00    20.00      -0.20 -999.99   -0.20    0.00000     0.00  LINEAR    5.24168E-01  -121.67    0.00000E+00     0.00
  -50.00    20.00      -0.97 -999.99   -0.97    0.00000     0.00  LINEAR    4.79778E-01  -121.57    0.00000E+00     0.00
  -45.00    20.00      -1.86 -999.99   -1.86    0.00000     0.00  LINEAR    4.32989E-01  -121.46    0.00000E+00     0.00
  -40.00    20.00      -2.89 -999.99   -2.89    0.00000     0.00  LINEAR    3.84645E-01  -121.37    0.00000E+00     0.00
  -35.00    20.00      -4.07 -999.99   -4.07    0.00000     0.00  LINEAR    3.35483E-01  -121.28    0.00000E+00     0.00
  -30.00    20.00      -5.46 -999.99   -5.46    0.00000     0.00  LINEAR    2.86105E-01  -121.22    0.00000E+00     0.00
  -25.00    20.00      -7.09 -999.99   -7.09    0.00000     0.00  LINEAR    2.36963E-01  -121.18    0.00000E+00     0.00
  -20.00    20.00      -9.09 -999.99   -9.09    0.00000     0.00  LINEAR    1.88347E-01  -121.17    0.00000E+00     0.00
  -15.00    20.00     -11.64 -999.99  -11.64    0.00000     0.00  LINEAR    1.40398E-01  -121.19    0.00000E+00     0.00
  -10.00    20.00     -15.21 -999.99  -15.21    0.00000     0.00  LINEAR    9.31157E-02  -121.25    0.00000E+00     0.00
   -5.00    20.00     -21.26 -999.99  -21.26    0.00000     0.00  LINEAR    4.63838E-02  -121.33    0.00000E+00     0.00
    0.00    20.00    -999.99 -999.99 -999.99    0.00000     0.00            0.00000E+00     0.00    0.00000E+00     0.00
 -180.00    25.00    -999.99 -999.99 -999.99    0.00000     0.00            5.41437E-12    58.55    0.00000E+00     0.00
 -175.00    25.00     -21.26 -999.99  -21.26    0.00000     0.00  LINEAR    4.63813E-02  -121.34    0.00000E+00     0.00
 -170.00    25.00     -15.21 -999.99  -15.21    0.00000     0.00  LINEAR    9.31027E-02  -121.25    0.00000E+00     0.00
 -165.00    25.00     -11.64 -999.99  -11.64    0.00000     0.00  LINEAR    1.40364E-01  -121.19    0.00000E+00     0.00
 -160.00    25.00      -9.09 -999.99   -9.09    0.00000     0.00  LINEAR    1.88283E-01  -121.17    0.00000E+00     0.00
 -155.00    25.00      -7.10 -999.99   -7.10    0.00000     0.00  LINEAR    2.36862E-01  -121.17    0.00000E+00     0.00
 -150.00    25.00      -5.46 -999.99   -5.46    0.00000     0.00  LINEAR    2.85968E-01  -121.21    0.00000E+00     0.00
 -145.00    25.00      -4.08 -999.99   -4.08    0.00000     0.00  LINEAR    3.35313E-01  -121.26    0.00000E+00     0.00
 -140.00    25.00      -2.89 -999.99   -2.89    0.00000     0.00  LINEAR    3.84454E-01  -121.34    0.00000E+00     0.00
 -135.00    25.00      -1.86 -999.99   -1.86    0.00000     0.00  LINEAR    4.32794E-01  -121.43    0.00000E+00     0.00
 -130.00    25.00      -0.97 -999.99   -0.97    0.00000     0.00  LINEAR    4.79598E-01  -121.52    0.00000E+00     0.00
 -125.00    25.00      -0.20 -999.99   -0.20    0.00000     0.00  LINEAR    5.24021E-01  -121.62    0.00000E+00     0.00
 -120.00    25.00       0.46 -999.99    0.46    0.00000     0.00  LINEAR    5.65144E-01  -121.71    0.00000E+00     0.00
 -115.00    25.00       1.01 -999.99    1.01    0.00000     0.00  LINEAR    6.02019E-01  -121.79    0.00000E+00     0.00
 -110.00    25.00       1.45 -999.99    1.45    0.00000     0.00  LINEAR    6.33716E-01  -121.86    0.00000E+00     0.00
 -105.00    25.00       1.80 -999.99    1.80    0.00000     0.00  LINEAR    6.59379E-01  -121.92    0.00000E+00     0.00
 -100.00    25.00       2.04 -999.99    2.04    0.00000     0.00  LINEAR    6.78278E-01  -121.96    0.00000E+00     0.00
  -95.00    25.00       2.19 -999.99    2.19    0.00000     0.00  LINEAR    6.89852E-01  -121.98    0.00000E+00     0.00
  -90.00    25.00       2.24 -999.99    2.24    0.00000     0.00  LINEAR    6.93751E-01  -121.99    0.00000E+00     0.00
  -85.00    25.00       2.19 -999.99    2.19    0.00000     0.00  LINEAR    6.89852E-01  -121.98    0.00000E+00     0.00
  -80.00    25.00       2.04 -999.99    2.04    0.00000     0.00  LINEAR    6.78278E-01  -121.96    0.00000E+00     0.00
  -75.00    25.00       1.80 -999.99    1.80    0.00000     0.00  LINEAR    6.59379E-01  -121.92    0.00000E+00     0.00
  -70.00    25.00       1.45 -999.99    1.45    0.00000     0.00  LINEAR    6.33716E-01  -121.86    0.00000E+00     0.00
  -65.00    25.00       1.01 -999.99    1.01    0.00000     0.00  LINEAR    6.02019E-01  -121.79    0.00000E+00     0.00
  -60.00    25.00       0.46 -999.99    0.46    0.00000     0.00  LINEAR    5.65144E-01  -121.71    0.00000E+00     0.00
  -55.00    25.00      -0.20 -999.99   -0.20    0.00000     0.00  LINEAR    5.24021E-01  -121.62    0.00000E+00     0.00
  -50.00    25.00      -0.97 -999.99   -0.97    0.00000     0.00  LINEAR    4.79598E-01  -121.52    0.00000E+00     0.00
  -45.00    25.00      -1.86 -999.99   -1.86    0.00000     0.00  LINEAR    4.32794E-01  -121.43    0.00000E+00     0.00
  -40.00    25.00      -2.89 -999.99   -2.89    0.00000     0.00  LINEAR    3.84454E-01  -121.34    0.00000E+00     0.00
  -35.00    25.00      -4.08 -999.99   -4.08    0.00000     0.00  LINEAR    3.35313E-01  -121.26    0.00000E+00     0.00
  -30.00    25.00      -5.46 -999.99   -5.46    0.00000     0.00  LINEAR    2.85968E-01  -121.21    0.00000E+00     0.00
  -25.00    25.00      -7.10 -999.99   -7.10    0.00000     0.00  LINEAR    2.36862E-01  -121.17    0.00000E+00     0.00
  -20.00    25.00      -9.09 -999.99   -9.09    0.00000     0.00  LINEAR    1.88283E-01  -121.17    0.00000E+00     0.00
  -15.00    25.00     -11.64 -999.99  -11.64    0.00000     0.00  LINEAR    1.40364E-01  -121.19    0.00000E+00     0.00
  -10.00    25.00     -15.21 -999.99  -15.21    0.00000     0.00  LINEAR    9.31027E-02  -121.25    0.00000E+00     0.00
   -5.00    25.00     -21.26 -999.99  -21.26    0.00000     0.00  LINEAR    4.63813E-02  -121.34    0.00000E+00     0.00
    0.00    25.00    -999.99 -999.99 -999.99    0.00000     0.00            0.00000E+00     0.00    0.00000E+00     0.00
 -180.00    30.00    -999.99 -999.99 -999.99    0.00000     0.00            5.41437E-12    58.55    0.00000E+00     0.00
 -175.00    30.00     -21.26 -999.99  -21.26    0.00000     0.00  LINEAR    4.63782E-02  -121.34    0.00000E+00     0.00
 -170.00    30.00     -15.21 -999.99  -15.21    0.00000     0.00  LINEAR    9.30873E-02  -121.26    0.00000E+00     0.00
 -165.00    30.00     -11.64 -999.99  -11.64    0.00000     0.00  LINEAR    1.40324E-01  -121.20    0.00000E+00     0.00
 -160.00    30.00      -9.09 -999.99   -9.09    0.00000     0.00  LINEAR    1.88207E-01  -121.17    0.00000E+00     0.00
 -155.00    30.00      -7.10 -999.99   -7.10    0.00000     0.00  LINEAR    2.36741E-01  -121.17    0.00000E+00     0.00
 -150.00    30.00      -5.47 -999.99   -5.47    0.00000     0.00  LINEAR    2.85798E-01  -121.20    0.00000E+00     0.00
 -145.00    30.00      -4.08 -999.99   -4.08    0.00000     0.00  LINEAR    3.35100E-01  -121.24    0.00000E+00     0.00
 -140.00    30.00      -2.90 -999.99   -2.90    0.00000     0.00  LINEAR    3.84209E-01  -121.31    0.00000E+00     0.00
 -135.00    30.00      -1.87 -999.99   -1.87    0.00000     0.00  LINEAR    4.32534E-01  -121.39    0.00000E+00     0.00
 -130.00    30.00      -0.97 -999.99   -0.97    0.00000     0.00  LINEAR    4.79344E-01  -121.48    0.00000E+00     0.00
 -125.00    30.00      -0.20 -999.99   -0.20    0.00000     0.00  LINEAR    5.23794E-01  -121.56    0.00000E+00     0.00
 -120.00    30.00       0.45 -999.99    0.45    0.00000     0.00  LINEAR    5.64961E-01  -121.65    0.00000E+00     0.00
 -115.00    30.00       1.00 -999.99    1.00    0.00000     0.00  LINEAR    6.01892E-01  -121.72    0.00000E+00     0.00
 -110.00    30.00       1.45 -999.99    1.45    0.00000     0.00  LINEAR    6.33649E-01  -121.79    0.00000E+00     0.00
 -105.00    30.00       1.80 -999.99    1.80    0.00000     0.00  LINEAR    6.59370E-01  -121.84    0.00000E+00     0.00
 -100.00    30.00       2.04 -999.99    2.04    0.00000     0.00  LINEAR    6.78316E-01  -121.88    0.00000E+00     0.00
  -95.00    30.00       2.19 -999.99    2.19    0.00000     0.00  LINEAR    6.89921E-01  -121.91    0.00000E+00     0.00
  -90.00    30.00       2.24 -999.99    2.24    0.00000     0.00  LINEAR    6.93830E-01  -121.91    0.00000E+00     0.00
  -85.00    30.00       2.19 -999.99    2.19    0.00000     0.00  LINEAR    6.89921E-01  -121.91    0.00000E+00     0.00
  -80.00    30.00       2.04 -999.99    2.04    0.00000     0.00  LINEAR    6.78316E-01  -121.88    0.00000E+00     0.00
  -75.00    30.00       1.80 -999.99    1.80    0.00000     0.00  LINEAR    6.59370E-01  -121.84    0.00000E+00     0.00
  -70.00    30.00       1.45 -999.99    1.45    0.00000     0.00  LINEAR    6.33649E-01  -121.79    0.00000E+00     0.00
  -65.00    30.00       1.00 -999.99    1.00    0.00000     0.00  LINEAR    6.01892E-01  -121.72    0.00000E+00     0.00
  -60.00    30.00       0.45 -999.99    0.45    0.00000     0.00  LINEAR    5.64961E-01  -121.65    0.00000E+00     0.00
  -55.00    30.00      -0.20 -999.99   -0.20    0.00000     0.00  LINEAR    5.23794E-01  -121.56    0.00000E+00     0.00
  -50.00    30.00      -0.97 -999.99   -0.97    0.00000     0.00  LINEAR    4.79344E-01  -121.48    0.00000E+00     0.00
  -45.00    30.00      -1.87 -999.99   -1.87    0.00000     0.00  LINEAR    4.32534E-01  -121.39    0.00000E+00     0.00
  -40.00    30.00      -2.90 -999.99   -2.90    0.00000     0.00  LINEAR    3.84209E-01  -121.31    0.00000E+00     0.00
  -35.00    30.00      -4.08 -999.99   -4.08    0.00000     0.00  LINEAR    3.35100E-01  -121.24    0.00000E+00     0.00
  -30.00    30.00      -5.47 -999.99   -5.47    0.00000     0.00  LINEAR    2.85798E-01  -121.20    0.00000E+00     0.00
  -25.00    30.00      -7.10 -999.99   -7.10    0.00000     0.00  LINEAR    2.36741E-01  -121.17    0.00000E+00     0.00
  -20.00    30.00      -9.09 -999.99   -9.09    0.00000     0.00  LINEAR    1.88207E-01  -121.17    0.00000E+00     0.00
  -15.00    30.00     -11.64 -999.99  -11.64    0.00000     0.00  LINEAR    1.40324E-01  -121.20    0.00000E+00     0.00
  -10.00    30.00     -15.21 -999.99  -15.21    0.00000     0.00  LINEAR    9.30873E-02  -121.26    0.00000E+00     0.00
   -5.00    30.00     -21.26 -999.99  -21.26    0.00000     0.00  LINEAR    4.63782E-02  -121.34    0.00000E+00     0.00
    0.00    30.00    -999.99 -999.99 -999.99    0.00000     0.00            0.00000E+00     0.00    0.00000E+00     0.00
 -180.00    35.00    -999.99 -999.99 -999.99    0.00000     0.00            5.41437E-12    58.55    0.00000E+00     0.00
 -175.00    35.00     -21.26 -999.99  -21.26    0.00000     0.00  LINEAR    4.63747E-02  -121.35    0.00000E+00     0.00
 -170.00    35.00     -15.21 -999.99  -15.21    0.00000     0.00  LINEAR    9.30697E-02  -121.27    0.00000E+00     0.00
 -165.00    35.00     -11.65 -999.99  -11.65    0.00000     0.00  LINEAR    1.40279E-01  -121.21    0.00000E+00     0.00
 -160.00    35.00      -9.10 -999.99   -9.10    0.00000     0.00  LINEAR    1.88119E-01  -121.18    0.00000E+00     0.00
 -155.00    35.00      -7.11 -999.99   -7.11    0.00000     0.00  LINEAR    2.36599E-01  -121.17    0.00000E+00     0.00
 -150.00    35.00      -5.47 -999.99   -5.47    0.00000     0.00  LINEAR    2.85598E-01  -121.19    0.00000E+00     0.00
 -145.00    35.00      -4.09 -999.99   -4.09    0.00000     0.00  LINEAR    3.34843E-01  -121.23    0.00000E+00     0.00
 -140.00    35.00      -2.90 -999.99   -2.90    0.00000     0.00  LINEAR    3.83906E-01  -121.28    0.00000E+00     0.00
 -135.00    35.00      -1.87 -999.99   -1.87    0.00000     0.00  LINEAR    4.32201E-01  -121.35    0.00000E+00     0.00
 -130.00    35.00      -0.98 -999.99   -0.98    0.00000     0.00  LINEAR    4.79002E-01  -121.42    0.00000E+00     0.00
 -125.00    35.00      -0.21 -999.99   -0.21    0.00000     0.00  LINEAR    5.23465E-01  -121.50    0.00000E+00     0.00
 -120.00    35.00       0.45 -999.99    0.45    0.00000     0.00  LINEAR    5.64665E-01  -121.58    0.00000E+00     0.00
 -115.00    35.00       1.00 -999.99    1.00    0.00000     0.00  LINEAR    6.01642E-01  -121.65    0.00000E+00     0.00
 -110.00    35.00       1.45 -999.99    1.45    0.00000     0.00  LINEAR    6.33454E-01  -121.71    0.00000E+00     0.00
 -105.00    35.00       1.79 -999.99    1.79    0.00000     0.00  LINEAR    6.59228E-01  -121.76    0.00000E+00     0.00
 -100.00    35.00       2.04 -999.99    2.04    0.00000     0.00  LINEAR    6.78218E-01  -121.79    0.00000E+00     0.00
  -95.00    35.00       2.19 -999.99    2.19    0.00000     0.00  LINEAR    6.89853E-01  -121.81    0.00000E+00     0.00
  -90.00    35.00       2.24 -999.99    2.24    0.00000     0.00  LINEAR    6.93772E-01  -121.82    0.00000E+00     0.00
  -85.00    35.00       2.19 -999.99    2.19    0.00000     0.00  LINEAR    6.89853E-01  -121.81    0.00000E+00     0.00
  -80.00    35.00       2.04 -999.99    2.04    0.00000     0.00  LINEAR    6.78218E-01  -121.79    0.00000E+00     0.00
  -75.00    35.00       1.79 -999.99    1.79    0.00000     0.00  LINEAR    6.59228E-01  -121.76    0.00000E+00     0.00
  -70.00    35.00       1.45 -999.99    1.45    0.00000     0.00  LINEAR    6.33454E-01  -121.71    0.00000E+00     0.00
  -65.00    35.00       1.00 -999.99    1.00    0.00000     0.00  LINEAR    6.01642E-01  -121.65    0.00000E+00     0.00
  -60.00    35.00       0.45 -999.99    0.45    0.00000     0.00  LINEAR    5.64665E-01  -121.58    0.00000E+00     0.00
  -55.00    35.00      -0.21 -999.99   -0.21    0.00000     0.00  LINEAR    5.23465E-01  -121.50    0.00000E+00     0.00
  -50.00    35.00      -0.98 -999.99   -0.98    0.00000     0.00  LINEAR    4.79002E-01  -121.42    0.00000E+00     0.00
  -45.00    35.00      -1.87 -999.99   -1.87    0.00000     0.00  LINEAR    4.32201E-01  -121.35    0.00000E+00     0.00
  -40.00    35.00      -2.90 -999.99   -2.90    0.00000     0.00  LINEAR    3.83906E-01  -121.28    0.00000E+00     0.00
  -35.00    35.00      -4.09 -999.99   -4.09    0.00000     0.00  LINEAR    3.34843E-01  -121.23    0.00000E+00     0.00
  -30.00    35.00      -5.47 -999.99   -5.47    0.00000     0.00  LINEAR    2.85598E-01  -121.19    0.00000E+00     0.00
  -25.00    35.00      -7.11 -999.99   -7.11    0.00000     0.00  LINEAR    2.36599E-01  -121.17    0.00000E+00     0.00
  -20.00    35.00      -9.10 -999.99   -9.10    0.00000     0.00  LINEAR    1.88119E-01  -121.18    0.00000E+00     0.00
  -15.00    35.00     -11.65 -999.99  -11.65    0.00000     0.00  LINEAR    1.40279E-01  -121.21    0.00000E+00     0.00
  -10.00    35.00     -15.21 -999.99  -15.21    0.00000     0.00  LINEAR    9.30697E-02  -121.27    0.00000E+00     0.00
   -5.00    35.00     -21.26 -999.99  -21.26    0.00000     0.00  LINEAR    4.63747E-02  -121.35    0.00000E+00     0.00
    0.00    35.00    -999.99 -999.99 -999.99    0.00000     0.00            0.00000E+00     0.00    0.00000E+00     0.00
 -180.00    40.00    -999.99 -999.99 -999.99    0.00000     0.00            5.41437E-12    58.55    0.00000E+00     0.00
 -175.00    40.00     -21.26 -999.99  -21.26    0.00000     0.00  LINEAR    4.63708E-02  -121.35    0.00000E+00     0.00
 -170.00    40.00     -15.21 -999.99  -15.21    0.00000     0.00  LINEAR    9.30502E-02  -121.28    0.00000E+00     0.00
 -165.00    40.00     -11.65 -999.99  -11.65    0.00000     0.00  LINEAR    1.40228E-01  -121.22    0.00000E+00     0.00
 -160.00    40.00      -9.10 -999.99   -9.10    0.00000     0.00  LINEAR    1.88020E-01  -121.19    0.00000E+00     0.00
 -155.00    40.00      -7.11 -999.99   -7.11    0.00000     0.00  LINEAR    2.36439E-01  -121.17    0.00000E+00     0.00
 -150.00    40.00      -5.48 -999.99   -5.48    0.00000     0.00  LINEAR    2.85367E-01  -121.18    0.00000E+00     0.00
 -145.00    40.00      -4.10 -999.99   -4.10    0.00000     0.00  LINEAR    3.34542E-01  -121.21    0.00000E+00     0.00
 -140.00    40.00      -2.91 -999.99   -2.91    0.00000     0.00  LINEAR    3.83541E-01  -121.25    0.00000E+00     0.00
 -135.00    40.00      -1.88 -999.99   -1.88    0.00000     0.00  LINEAR    4.31787E-01  -121.31    0.00000E+00     0.00
 -130.00    40.00      -0.99 -999.99   -0.99    0.00000     0.00  LINEAR    4.78558E-01  -121.37    0.00000E+00     0.00
 -125.00    40.00      -0.22 -999.99   -0.22    0.00000     0.00  LINEAR    5.23013E-01  -121.44    0.00000E+00     0.00
 -120.00    40.00       0.44 -999.99    0.44    0.00000     0.00  LINEAR    5.64226E-01  -121.50    0.00000E+00     0.00
 -115.00    40.00       0.99 -999.99    0.99    0.00000     0.00  LINEAR    6.01232E-01  -121.56    0.00000E+00     0.00
 -110.00    40.00       1.44 -999.99    1.44    0.00000     0.00  LINEAR    6.33083E-01  -121.62    0.00000E+00     0.00
 -105.00    40.00       1.79 -999.99    1.79    0.00000     0.00  LINEAR    6.58899E-01  -121.66    0.00000E+00     0.00
 -100.00    40.00       2.04 -999.99    2.04    0.00000     0.00  LINEAR    6.77926E-01  -121.69    0.00000E+00     0.00
  -95.00    40.00       2.18 -999.99    2.18    0.00000     0.00  LINEAR    6.89585E-01  -121.71    0.00000E+00     0.00
  -90.00    40.00       2.23 -999.99    2.23    0.00000     0.00  LINEAR    6.93513E-01  -121.72    0.00000E+00     0.00
  -85.00    40.00       2.18 -999.99    2.18    0.00000     0.00  LINEAR    6.89585E-01  -121.71    0.00000E+00     0.00
  -80.00    40.00       2.04 -999.99    2.04    0.00000     0.00  LINEAR    6.77926E-01  -121.69    0.00000E+00     0.00
  -75.00    40.00       1.79 -999.99    1.79    0.00000     0.00  LINEAR    6.58899E-01  -121.66    0.00000E+00     0.00
  -70.00    40.00       1.44 -999.99    1.44    0.00000     0.00  LINEAR    6.33083E-01  -121.62    0.00000E+00     0.00
  -65.00    40.00       0.99 -999.99    0.99    0.00000     0.00  LINEAR    6.01232E-01  -121.56    0.00000E+00     0.00
  -60.00    40.00       0.44 -999.99    0.44    0.00000     0.00  LINEAR    5.64226E-01  -121.50    0.00000E+00     0.00
  -55.00    40.00      -0.22 -999.99   -0.22    0.00000     0.00  LINEAR    5.23013E-01  -121.44    0.00000E+00     0.00
  -50.00    40.00      -0.99 -999.99   -0.99    0.00000     0.00  LINEAR    4.78558E-01  -121.37    0.00000E+00     0.00
  -45.00    40.00      -1.88 -999.99   -1.88    0.00000     0.00  LINEAR    4.31787E-01  -121.31    0.00000E+00     0.00
  -40.00    40.00      -2.91 -999.99   -2.91    0.00000     0.00  LINEAR    3.83541E-01  -121.25    0.00000E+00     0.00
  -35.00    40.00      -4.10 -999.99   -4.10    0.00000     0.00  LINEAR    3.34542E-01  -121.21    0.00000E+00     0.00
  -30.00    40.00      -5.48 -999.99   -5.48    0.00000     0.00  LINEAR    2.85367E-01  -121.18    0.00000E+00     0.00
  -25.00    40.00      -7.11 -999.99   -7.11    0.00000     0.00  LINEAR    2.36439E-01  -121.17    0.00000E+00     0.00
  -20.00    40.00      -9.10 -999.99   -9.10    0.00000     0.00  LINEAR    1.88020E-01  -121.19    0.00000E+00     0.00
  -15.00    40.00     -11.65 -999.99  -11.65    0.00000     0.00  LINEAR    1.40228E-01  -121.22    0.00000E+00     0.00
  -10.00    40.00     -15.21 -999.99  -15.21    0.00000     0.00  LINEAR    9.30502E-02  -121.28    0.00000E+00     0.00
   -5.00    40.00     -21.26 -999.99  -21.26    0.00000     0.00  LINEAR    4.63708E-02  -121.35    0.00000E+00     0.00
    0.00    40.00    -999.99 -999.99 -999.99    0.00000     0.00            0.00000E+00     0.00    0.00000E+00     0.00
 -180.00    45.00    -999.99 -999.99 -999.99    0.00000     0.00            5.41437E-12    58.55    0.00000E+00     0.00
 -175.00    45.00     -21.26 -999.99  -21.26    0.00000     0.00  LINEAR    4.63666E-02  -121.36    0.00000E+00     0.00
 -170.00    45.00     -15.21 -999.99  -15.21    0.00000     0.00  LINEAR    9.30290E-02  -121.29    0.00000E+00     0.00
 -165.00    45.00     -11.65 -999.99  -11.65    0.00000     0.00  LINEAR    1.40173E-01  -121.23    0.00000E+00     0.00
 -160.00    45.00      -9.11 -999.99   -9.11    0.00000     0.00  LINEAR    1.87913E-01  -121.20    0.00000E+00     0.00
 -155.00    45.00      -7.12 -999.99   -7.12    0.00000     0.00  LINEAR    2.36262E-01  -121.18    0.00000E+00     0.00
 -150.00    45.00      -5.49 -999.99   -5.49    0.00000     0.00  LINEAR    2.85110E-01  -121.18    0.00000E+00     0.00
 -145.00    45.00      -4.11 -999.99   -4.11    0.00000     0.00  LINEAR    3.34199E-01  -121.20    0.00000E+00     0.00
 -140.00    45.00      -2.92 -999.99   -2.92    0.00000     0.00  LINEAR    3.83115E-01  -121.23    0.00000E+00     0.00
 -135.00    45.00      -1.89 -999.99   -1.89    0.00000     0.00  LINEAR    4.31289E-01  -121.27    0.00000E+00     0.00
 -130.00    45.00      -1.00 -999.99   -1.00    0.00000     0.00  LINEAR    4.78004E-01  -121.32    0.00000E+00     0.00
 -125.00    45.00      -0.23 -999.99   -0.23    0.00000     0.00  LINEAR    5.22424E-01  -121.37    0.00000E+00     0.00
 -120.00    45.00       0.43 -999.99    0.43    0.00000     0.00  LINEAR    5.63621E-01  -121.43    0.00000E+00     0.00
 -115.00    45.00       0.99 -999.99    0.99    0.00000     0.00  LINEAR    6.00631E-01  -121.48    0.00000E+00     0.00
 -110.00    45.00       1.43 -999.99    1.43    0.00000     0.00  LINEAR    6.32498E-01  -121.52    0.00000E+00     0.00
 -105.00    45.00       1.78 -999.99    1.78    0.00000     0.00  LINEAR    6.58336E-01  -121.56    0.00000E+00     0.00
 -100.00    45.00       2.03 -999.99    2.03    0.00000     0.00  LINEAR    6.77384E-01  -121.59    0.00000E+00     0.00
  -95.00    45.00       2.18 -999.99    2.18    0.00000     0.00  LINEAR    6.89060E-01  -121.61    0.00000E+00     0.00
  -90.00    45.00       2.23 -999.99    2.23    0.00000     0.00  LINEAR    6.92993E-01  -121.61    0.00000E+00     0.00
  -85.00    45.00       2.18 -999.99    2.18    0.00000     0.00  LINEAR    6.89060E-01  -121.61    0.00000E+00     0.00
  -80.00    45.00       2.03 -999.99    2.03    0.00000     0.00  LINEAR    6.77384E-01  -121.59    0.00000E+00     0.00
  -75.00    45.00       1.78 -999.99    1.78    0.00000     0.00  LINEAR    6.58336E-01  -121.56    0.00000E+00     0.00
  -70.00    45.00       1.43 -999.99    1.43    0.00000     0.00  LINEAR    6.32498E-01  -121.52    0.00000E+00     0.00
  -65.00    45.00       0.99 -999.99    0.99    0.00000     0.00  LINEAR    6.00631E-01  -121.48    0.00000E+00     0.00
  -60.00    45.00       0.43 -999.99    0.43    0.00000     0.00  LINEAR    5.63621E-01  -121.43    0.00000E+00     0.00
  -55.00    45.00      -0.23 -999.99   -0.23    0.00000     0.00  LINEAR    5.22424E-01  -121.37    0.00000E+00     0.00
  -50.00    45.00      -1.00 -999.99   -1.00    0.00000     0.00  LINEAR    4.78004E-01  -121.32    0.00000E+00     0.00
  -45.00    45.00      -1.89 -999.99   -1.89    0.00000     0.00  LINEAR    4.31289E-01  -121.27    0.00000E+00     0.00
  -40.00    45.00      -2.92 -999.99   -2.92    0.00000     0.00  LINEAR    3.83115E-01  -121.23    0.00000E+00     0.00
  -35.00    45.00      -4.11 -999.99   -4.11    0.00000     0.00  LINEAR    3.34199E-01  -121.20    0.00000E+00     0.00
  -30.00    45.00      -5.49 -999.99   -5.49    0.00000     0.00  LINEAR    2.85110E-01  -121.18    0.00000E+00     0.00
  -25.00    45.00      -7.12 -999.99   -7.12    0.00000     0.00  LINEAR    2.36262E-01  -121.18    0.00000E+00     0.00
  -20.00    45.00      -9.11 -999.99   -9.11    0.00000     0.00  LINEAR    1.87913E-01  -121.20    0.00000E+00     0.00
  -15.00    45.00     -11.65 -999.99  -11.65    0.00000     0.00  LINEAR    1.40173E-01  -121.23    0.00000E+00     0.00
  -10.00    45.00     -15.21 -999.99  -15.21    0.00000     0.00  LINEAR    9.30290E-02  -121.29    0.00000E+00     0.00
   -5.00    45.00     -21.26 -999.99  -21.26    0.00000     0.00  LINEAR    4.63666E-02  -121.36    0.00000E+00     0.00
    0.00    45.00    -999.99 -999.99 -999.99    0.00000     0.00            0.00000E+00     0.00    0.00000E+00     0.00
 -180.00    50.00    -999.99 -999.99 -999.99    0.00000     0.00            5.41437E-12    58.55    0.00000E+00     0.00
 -175.00    50.00     -21.26 -999.99  -21.26    0.00000     0.00  LINEAR    4.63621E-02  -121.37    0.00000E+00     0.00
 -170.00    50.00     -15.22 -999.99  -15.22    0.00000     0.00  LINEAR    9.30067E-02  -121.30    0.00000E+00     0.00
 -165.00    50.00     -11.66 -999.99  -11.66    0.00000     0.00  LINEAR    1.40115E-01  -121.25    0.00000E+00     0.00
 -160.00    50.00      -9.11 -999.99   -9.11    0.00000     0.00  LINEAR    1.87798E-01  -121.21    0.00000E+00     0.00
 -155.00    50.00      -7.13 -999.99   -7.13    0.00000     0.00  LINEAR    2.36073E-01  -121.19    0.00000E+00     0.00
 -150.00    50.00      -5.50 -999.99   -5.50    0.00000     0.00  LINEAR    2.84830E-01  -121.18    0.00000E+00     0.00
 -145.00    50.00      -4.12 -999.99   -4.12    0.00000     0.00  LINEAR    3.33818E-01  -121.19    0.00000E+00     0.00
 -140.00    50.00      -2.93 -999.99   -2.93    0.00000     0.00  LINEAR    3.82632E-01  -121.21    0.00000E+00     0.00
 -135.00    50.00      -1.90 -999.99   -1.90    0.00000     0.00  LINEAR    4.30709E-01  -121.24    0.00000E+00     0.00
 -130.00    50.00      -1.01 -999.99   -1.01    0.00000     0.00  LINEAR    4.77339E-01  -121.28    0.00000E+00     0.00
 -125.00    50.00      -0.24 -999.99   -0.24    0.00000     0.00  LINEAR    5.21690E-01  -121.32    0.00000E+00     0.00
 -120.00    50.00       0.42 -999.99    0.42    0.00000     0.00  LINEAR    5.62838E-01  -121.36    0.00000E+00     0.00
 -115.00    50.00       0.97 -999.99    0.97    0.00000     0.00  LINEAR    5.99817E-01  -121.40    0.00000E+00     0.00
 -110.00    50.00       1.42 -999.99    1.42    0.00000     0.00  LINEAR    6.31669E-01  -121.44    0.00000E+00     0.00
 -105.00    50.00       1.77 -999.99    1.77    0.00000     0.00  LINEAR    6.57503E-01  -121.47    0.00000E+00     0.00
 -100.00    50.00       2.02 -999.99    2.02    0.00000     0.00  LINEAR    6.76554E-01  -121.49    0.00000E+00     0.00
  -95.00    50.00       2.17 -999.99    2.17    0.00000     0.00  LINEAR    6.88232E-01  -121.50    0.00000E+00     0.00
  -90.00    50.00       2.22 -999.99    2.22    0.00000     0.00  LINEAR    6.92167E-01  -121.51    0.00000E+00     0.00
  -85.00    50.00       2.17 -999.99    2.17    0.00000     0.00  LINEAR    6.88232E-01  -121.50    0.00000E+00     0.00
  -80.00    50.00       2.02 -999.99    2.02    0.00000     0.00  LINEAR    6.76554E-01  -121.49    0.00000E+00     0.00
  -75.00    50.00       1.77 -999.99    1.77    0.00000     0.00  LINEAR    6.57503E-01  -121.47    0.00000E+00     0.00
  -70.00    50.00       1.42 -999.99    1.42    0.00000     0.00  LINEAR    6.31669E-01  -121.44    0.00000E+00     0.00
  -65.00    50.00       0.97 -999.99    0.97    0.00000     0.00  LINEAR    5.99817E-01  -121.40    0.00000E+00     0.00
  -60.00    50.00       0.42 -999.99    0.42    0.00000     0.00  LINEAR    5.62838E-01  -121.36    0.00000E+00     0.00
  -55.00    50.00      -0.24 -999.99   -0.24    0.00000     0.00  LINEAR    5.21690E-01  -121.32    0.00000E+00     0.00
  -50.00    50.00      -1.01 -999.99   -1.01    0.00000     0.00  LINEAR    4.77339E-01  -121.28    0.00000E+00     0.00
  -45.00    50.00      -1.90 -999.99   -1.90    0.00000     0.00  LINEAR    4.30709E-01  -121.24    0.00000E+00     0.00
  -40.00    50.00      -2.93 -999.99   -2.93    0.00000     0.00  LINEAR    3.82632E-01  -121.21    0.00000E+00     0.00
  -35.00    50.00      -4.12 -999.99   -4.12    0.00000     0.00  LINEAR    3.33818E-01  -121.19    0.00000E+00     0.00
  -30.00    50.00      -5.50 -999.99   -5.50    0.00000     0.00  LINEAR    2.84830E-01  -121.18    0.00000E+00     0.00
  -25.00    50.00      -7.13 -999.99   -7.13    0.00000     0.00  LINEAR    2.36073E-01  -121.19    0.00000E+00     0.00
  -20.00    50.00      -9.11 -999.99   -9.11    0.00000     0.00  LINEAR    1.87798E-01  -121.21    0.00000E+00     0.00
  -15.00    50.00     -11.66 -999.99  -11.66    0.00000     0.00  LINEAR    1.40115E-01  -121.25    0.00000E+00     0.00
  -10.00    50.00     -15.22 -999.99  -15.22    0.00000     0.00  LINEAR    9.30067E-02  -121.30    0.00000E+00     0.00
   -5.00    50.00     -21.26 -999.99  -21.26    0.00000     0.00  LINEAR    4.63621E-02  -121.37    0.00000E+00     0.00
    0.00    50.00    -999.99 -999.99 -999.99    0.00000     0.00            0.00000E+00     0.00    0.00000E+00     0.00
 -180.00    55.00    -999.99 -999.99 -999.99    0.00000     0.00            5.41437E-12    58.55    0.00000E+00     0.00
 -175.00    55.00     -21.26 -999.99  -21.26    0.00000     0.00  LINEAR    4.63574E-02  -121.38    0.00000E+00     0.00
 -170.00    55.00     -15.22 -999.99  -15.22    0.00000     0.00  LINEAR    9.29835E-02  -121.32    0.00000E+00     0.00
 -165.00    55.00     -11.66 -999.99  -11.66    0.00000     0.00  LINEAR    1.40054E-01  -121.27    0.00000E+00     0.00
 -160.00    55.00      -9.12 -999.99   -9.12    0.00000     0.00  LINEAR    1.87679E-01  -121.23    0.00000E+00     0.00
 -155.00    55.00      -7.13 -999.99   -7.13    0.00000     0.00  LINEAR    2.35874E-01  -121.21    0.00000E+00     0.00
 -150.00    55.00      -5.50 -999.99   -5.50    0.00000     0.00  LINEAR    2.84532E-01  -121.19    0.00000E+00     0.00
 -145.00    55.00      -4.13 -999.99   -4.13    0.00000     0.00  LINEAR    3.33407E-01  -121.19    0.00000E+00     0.00
 -140.00    55.00      -2.94 -999.99   -2.94    0.00000     0.00  LINEAR    3.82099E-01  -121.20    0.00000E+00     0.00
 -135.00    55.00      -1.92 -999.99   -1.92    0.00000     0.00  LINEAR    4.30054E-01  -121.22    0.00000E+00     0.00
 -130.00    55.00      -1.02 -999.99   -1.02    0.00000     0.00  LINEAR    4.76569E-01  -121.24    0.00000E+00     0.00
 -125.00    55.00      -0.25 -999.99   -0.25    0.00000     0.00  LINEAR    5.20817E-01  -121.27    0.00000E+00     0.00
 -120.00    55.00       0.41 -999.99    0.41    0.00000     0.00  LINEAR    5.61879E-01  -121.30    0.00000E+00     0.00
 -115.00    55.00       0.96 -999.99    0.96    0.00000     0.00  LINEAR    5.98789E-01  -121.33    0.00000E+00     0.00
 -110.00    55.00       1.41 -999.99    1.41    0.00000     0.00  LINEAR    6.30589E-01  -121.36    0.00000E+00     0.00
 -105.00    55.00       1.76 -999.99    1.76    0.00000     0.00  LINEAR    6.56387E-01  -121.38    0.00000E+00     0.00
 -100.00    55.00       2.00 -999.99    2.00    0.00000     0.00  LINEAR    6.75416E-01  -121.40    0.00000E+00     0.00
  -95.00    55.00       2.15 -999.99    2.15    0.00000     0.00  LINEAR    6.87082E-01  -121.41    0.00000E+00     0.00
  -90.00    55.00       2.20 -999.99    2.20    0.00000     0.00  LINEAR    6.91014E-01  -121.41    0.00000E+00     0.00
  -85.00    55.00       2.15 -999.99    2.15    0.00000     0.00  LINEAR    6.87082E-01  -121.41    0.00000E+00     0.00
  -80.00    55.00       2.00 -999.99    2.00    0.00000     0.00  LINEAR    6.75416E-01  -121.40    0.00000E+00     0.00
  -75.00    55.00       1.76 -999.99    1.76    0.00000     0.00  LINEAR    6.56387E-01  -121.38    0.00000E+00     0.00
  -70.00    55.00       1.41 -999.99    1.41    0.00000     0.00  LINEAR    6.30589E-01  -121.36    0.00000E+00     0.00
  -65.00    55.00       0.96 -999.99    0.96    0.00000     0.00  LINEAR    5.98789E-01  -121.33    0.00000E+00     0.00
  -60.00    55.00       0.41 -999.99    0.41    0.00000     0.00  LINEAR    5.61879E-01  -121.30    0.00000E+00     0.00
  -55.00    55.00      -0.25 -999.99   -0.25    0.00000     0.00  LINEAR    5.20817E-01  -121.27    0.00000E+00     0.00
  -50.00    55.00      -1.02 -999.99   -1.02    0.00000     0.00  LINEAR    4.76569E-01  -121.24    0.00000E+00     0.00
  -45.00    55.00      -1.92 -999.99   -1.92    0.00000     0.00  LINEAR    4.30054E-01  -121.22    0.00000E+00     0.00
  -40.00    55.00      -2.94 -999.99   -2.94    0.00000     0.00  LINEAR    3.82099E-01  -121.20    0.00000E+00     0.00
  -35.00    55.00      -4.13 -999.99   -4.13    0.00000     0.00  LINEAR    3.33407E-01  -121.19    0.00000E+00     0.00
  -30.00    55.00      -5.50 -999.99   -5.50    0.00000     0.00  LINEAR    2.84532E-01  -121.19    0.00000E+00     0.00
  -25.00    55.00      -7.13 -999.99   -7.13    0.00000     0.00  LINEAR    2.35874E-01  -121.21    0.00000E+00     0.00
  -20.00    55.00      -9.12 -999.99   -9.12    0.00000     0.00  LINEAR    1.87679E-01  -121.23    0.00000E+00     0.00
  -15.00    55.00     -11.66 -999.99  -11.66    0.00000     0.00  LINEAR    1.40054E-01  -121.27    0.00000E+00     0.00
  -10.00    55.00     -15.22 -999.99  -15.22    0.00000     0.00  LINEAR    9.29835E-02  -121.32    0.00000E+00     0.00
   -5.00    55.00     -21.26 -999.99  -21.26    0.00000     0.00  LINEAR    4.63574E-02  -121.38    0.00000E+00     0.00
    0.00    55.00    -999.99 -999.99 -999.99    0.00000     0.00            0.00000E+00     0.00    0.00000E+00     0.00
 -180.00    60.00    -999.99 -999.99 -999.99    0.00000     0.00            5.41437E-12    58.55    0.00000E+00     0.00
 -175.00    60.00     -21.27 -999.99  -21.27    0.00000     0.00  LINEAR    4.63525E-02  -121.39    0.00000E+00     0.00
 -170.00    60.00     -15.22 -999.99  -15.22    0.00000     0.00  LINEAR    9.29598E-02  -121.33    0.00000E+00     0.00
 -165.00    60.00     -11.66 -999.99  -11.66    0.00000     0.00  LINEAR    1.39993E-01  -121.29    0.00000E+00     0.00
 -160.00    60.00      -9.12 -999.99   -9.12    0.00000     0.00  LINEAR    1.87558E-01  -121.25    0.00000E+00     0.00
 -155.00    60.00      -7.14 -999.99   -7.14    0.00000     0.00  LINEAR    2.35670E-01  -121.23    0.00000E+00     0.00
 -150.00    60.00      -5.51 -999.99   -5.51    0.00000     0.00  LINEAR    2.84223E-01  -121.21    0.00000E+00     0.00
 -145.00    60.00      -4.14 -999.99   -4.14    0.00000     0.00  LINEAR    3.32975E-01  -121.20    0.00000E+00     0.00
 -140.00    60.00      -2.96 -999.99   -2.96    0.00000     0.00  LINEAR    3.81530E-01  -121.20    0.00000E+00     0.00
 -135.00    60.00      -1.93 -999.99   -1.93    0.00000     0.00  LINEAR    4.29342E-01  -121.21    0.00000E+00     0.00
 -130.00    60.00      -1.04 -999.99   -1.04    0.00000     0.00  LINEAR    4.75713E-01  -121.23    0.00000E+00     0.00
 -125.00    60.00      -0.27 -999.99   -0.27    0.00000     0.00  LINEAR    5.19824E-01  -121.24    0.00000E+00     0.00
 -120.00    60.00       0.39 -999.99    0.39    0.00000     0.00  LINEAR    5.60761E-01  -121.26    0.00000E+00     0.00
 -115.00    60.00       0.94 -999.99    0.94    0.00000     0.00  LINEAR    5.97563E-01  -121.28    0.00000E+00     0.00
 -110.00    60.00       1.39 -999.99    1.39    0.00000     0.00  LINEAR    6.29275E-01  -121.30    0.00000E+00     0.00
 -105.00    60.00       1.74 -999.99    1.74    0.00000     0.00  LINEAR    6.55005E-01  -121.31    0.00000E+00     0.00
 -100.00    60.00       1.99 -999.99    1.99    0.00000     0.00  LINEAR    6.73985E-01  -121.32    0.00000E+00     0.00
  -95.00    60.00       2.13 -999.99    2.13    0.00000     0.00  LINEAR    6.85623E-01  -121.33    0.00000E+00     0.00
  -90.00    60.00       2.18 -999.99    2.18    0.00000     0.00  LINEAR    6.89545E-01  -121.33    0.00000E+00     0.00
  -85.00    60.00       2.13 -999.99    2.13    0.00000     0.00  LINEAR    6.85623E-01  -121.33    0.00000E+00     0.00
  -80.00    60.00       1.99 -999.99    1.99    0.00000     0.00  LINEAR    6.73985E-01  -121.32    0.00000E+00     0.00
  -75.00    60.00       1.74 -999.99    1.74    0.00000     0.00  LINEAR    6.55005E-01  -121.31    0.00000E+00     0.00
  -70.00    60.00       1.39 -999.99    1.39    0.00000     0.00  LINEAR    6.29275E-01  -121.30    0.00000E+00     0.00
  -65.00    60.00       0.94 -999.99    0.94    0.00000     0.00  LINEAR    5.97563E-01  -121.28    0.00000E+00     0.00
  -60.00    60.00       0.39 -999.99    0.39    0.00000     0.00  LINEAR    5.60761E-01  -121.26    0.00000E+00     0.00
  -55.00    60.00      -0.27 -999.99   -0.27    0.00000     0.00  LINEAR    5.19824E-01  -121.24    0.00000E+00     0.00
  -50.00    60.00      -1.04 -999.99   -1.04    0.00000     0.00  LINEAR    4.75713E-01  -121.23    0.00000E+00     0.00
  -45.00    60.00      -1.93 -999.99   -1.93    0.00000     0.00  LINEAR    4.29342E-01  -121.21    0.00000E+00     0.00
  -40.00    60.00      -2.96 -999.99   -2.96    0.00000     0.00  LINEAR    3.81530E-01  -121.20    0.00000E+00     0.00
  -35.00    60.00      -4.14 -999.99   -4.14    0.00000     0.00  LINEAR    3.32975E-01  -121.20    0.00000E+00     0.00
  -30.00    60.00      -5.51 -999.99   -5.51    0.00000     0.00  LINEAR    2.84223E-01  -121.21    0.00000E+00     0.00
  -25.00    60.00      -7.14 -999.99   -7.14    0.00000     0.00  LINEAR    2.35670E-01  -121.23    0.00000E+00     0.00
  -20.00    60.00      -9.12 -999.99   -9.12    0.00000     0.00  LINEAR    1.87558E-01  -121.25    0.00000E+00     0.00
  -15.00    60.00     -11.66 -999.99  -11.66    0.00000     0.00  LINEAR    1.39993E-01  -121.29    0.00000E+00     0.00
  -10.00    60.00     -15.22 -999.99  -15.22    0.00000     0.00  LINEAR    9.29598E-02  -121.33    0.00000E+00     0.00
   -5.00    60.00     -21.27 -999.99  -21.27    0.00000     0.00  LINEAR    4.63525E-02  -121.39    0.00000E+00     0.00
    0.00    60.00    -999.99 -999.99 -999.99    0.00000     0.00            0.00000E+00     0.00    0.00000E+00     0.00
 -180.00    65.00    -999.99 -999.99 -999.99    0.00000     0.00            5.41437E-12    58.55    0.00000E+00     0.00
 -175.00    65.00     -21.27 -999.99  -21.27    0.00000     0.00  LINEAR    4.63475E-02  -121.40    0.00000E+00     0.00
 -170.00    65.00     -15.22 -999.99  -15.22    0.00000     0.00  LINEAR    9.29361E-02  -121.35    0.00000E+00     0.00
 -165.00    65.00     -11.67 -999.99  -11.67    0.00000     0.00  LINEAR    1.39932E-01  -121.31    0.00000E+00     0.00
 -160.00    65.00      -9.13 -999.99   -9.13    0.00000     0.00  LINEAR    1.87437E-01  -121.28    0.00000E+00     0.00
 -155.00    65.00      -7.15 -999.99   -7.15    0.00000     0.00  LINEAR    2.35465E-01  -121.25    0.00000E+00     0.00
 -150.00    65.00      -5.52 -999.99   -5.52    0.00000     0.00  LINEAR    2.83911E-01  -121.24    0.00000E+00     0.00
 -145.00    65.00      -4.15 -999.99   -4.15    0.00000     0.00  LINEAR    3.32534E-01  -121.23    0.00000E+00     0.00
 -140.00    65.00      -2.97 -999.99   -2.97    0.00000     0.00  LINEAR    3.80942E-01  -121.22    0.00000E+00     0.00
 -135.00    65.00      -1.95 -999.99   -1.95    0.00000     0.00  LINEAR    4.28594E-01  -121.22    0.00000E+00     0.00
 -130.00    65.00      -1.06 -999.99   -1.06    0.00000     0.00  LINEAR    4.74799E-01  -121.23    0.00000E+00     0.00
 -125.00    65.00      -0.29 -999.99   -0.29    0.00000     0.00  LINEAR    5.18746E-01  -121.23    0.00000E+00     0.00
 -120.00    65.00       0.37 -999.99    0.37    0.00000     0.00  LINEAR    5.59526E-01  -121.24    0.00000E+00     0.00
 -115.00    65.00       0.92 -999.99    0.92    0.00000     0.00  LINEAR    5.96186E-01  -121.25    0.00000E+00     0.00
 -110.00    65.00       1.37 -999.99    1.37    0.00000     0.00  LINEAR    6.27775E-01  -121.26    0.00000E+00     0.00
 -105.00    65.00       1.72 -999.99    1.72    0.00000     0.00  LINEAR    6.53406E-01  -121.27    0.00000E+00     0.00
 -100.00    65.00       1.96 -999.99    1.96    0.00000     0.00  LINEAR    6.72314E-01  -121.28    0.00000E+00     0.00
  -95.00    65.00       2.11 -999.99    2.11    0.00000     0.00  LINEAR    6.83907E-01  -121.28    0.00000E+00     0.00
  -90.00    65.00       2.16 -999.99    2.16    0.00000     0.00  LINEAR    6.87814E-01  -121.28    0.00000E+00     0.00
  -85.00    65.00       2.11 -999.99    2.11    0.00000     0.00  LINEAR    6.83907E-01  -121.28    0.00000E+00     0.00
  -80.00    65.00       1.96 -999.99    1.96    0.00000     0.00  LINEAR    6.72314E-01  -121.28    0.00000E+00     0.00
  -75.00    65.00       1.72 -999.99    1.72    0.00000     0.00  LINEAR    6.53406E-01  -121.27    0.00000E+00     0.00
  -70.00    65.00       1.37 -999.99    1.37    0.00000     0.00  LINEAR    6.27775E-01  -121.26    0.00000E+00     0.00
  -65.00    65.00       0.92 -999.99    0.92    0.00000     0.00  LINEAR    5.96186E-01  -121.25    0.00000E+00     0.00
  -60.00    65.00       0.37 -999.99    0.37    0.00000     0.00  LINEAR    5.59526E-01  -121.24    0.00000E+00     0.00
  -55.00    65.00      -0.29 -999.99   -0.29    0.00000     0.00  LINEAR    5.18746E-01  -121.23    0.00000E+00     0.00
  -50.00    65.00      -1.06 -999.99   -1.06    0.00000     0.00  LINEAR    4.74799E-01  -121.23    0.00000E+00     0.00
  -45.00    65.00      -1.95 -999.99   -1.95    0.00000     0.00  LINEAR    4.28594E-01  -121.22    0.00000E+00     0.00
  -40.00    65.00      -2.97 -999.99   -2.97    0.00000     0.00  LINEAR    3.80942E-01  -121.22    0.00000E+00     0.00
  -35.00    65.00      -4.15 -999.99   -4.15    0.00000     0.00  LINEAR    3.32534E-01  -121.23    0.00000E+00     0.00
  -30.00    65.00      -5.52 -999.99   -5.52    0.00000     0.00  LINEAR    2.83911E-01  -121.24    0.00000E+00     0.00
  -25.00    65.00      -7.15 -999.99   -7.15    0.00000     0.00  LINEAR    2.35465E-01  -121.25    0.00000E+00     0.00
  -20.00    65.00      -9.13 -999.99   -9.13    0.00000     0.00  LINEAR    1.87437E-01  -121.28    0.00000E+00     0.00
  -15.00    65.00     -11.67 -999.99  -11.67    0.00000     0.00  LINEAR    1.39932E-01  -121.31    0.00000E+00     0.00
  -10.00    65.00     -15.22 -999.99  -15.22    0.00000     0.00  LINEAR    9.29361E-02  -121.35    0.00000E+00     0.00
   -5.00    65.00     -21.27 -999.99  -21.27    0.00000     0.00  LINEAR    4.63475E-02  -121.40    0.00000E+00     0.00
    0.00    65.00    -999.99 -999.99 -999.99    0.00000     0.00            0.00000E+00     0.00    0.00000E+00     0.00
 -180.00    70.00    -999.99 -999.99 -999.99    0.00000     0.00            5.41437E-12    58.55    0.00000E+00     0.00
 -175.00    70.00     -21.27 -999.99  -21.27    0.00000     0.00  LINEAR    4.63425E-02  -121.41    0.00000E+00     0.00
 -170.00    70.00     -15.23 -999.99  -15.23    0.00000     0.00  LINEAR    9.29127E-02  -121.37    0.00000E+00     0.00
 -165.00    70.00     -11.67 -999.99  -11.67    0.00000     0.00  LINEAR    1.39872E-01  -121.34    0.00000E+00     0.00
 -160.00    70.00      -9.14 -999.99   -9.14    0.00000     0.00  LINEAR    1.87320E-01  -121.31    0.00000E+00     0.00
 -155.00    70.00      -7.16 -999.99   -7.16    0.00000     0.00  LINEAR    2.35266E-01  -121.29    0.00000E+00     0.00
 -150.00    70.00      -5.53 -999.99   -5.53    0.00000     0.00  LINEAR    2.83606E-01  -121.27    0.00000E+00     0.00
 -145.00    70.00      -4.16 -999.99   -4.16    0.00000     0.00  LINEAR    3.32098E-01  -121.26    0.00000E+00     0.00
 -140.00    70.00      -2.98 -999.99   -2.98    0.00000     0.00  LINEAR    3.80356E-01  -121.25    0.00000E+00     0.00
 -135.00    70.00      -1.96 -999.99   -1.96    0.00000     0.00  LINEAR    4.27840E-01  -121.25    0.00000E+00     0.00
 -130.00    70.00      -1.07 -999.99   -1.07    0.00000     0.00  LINEAR    4.73867E-01  -121.25    0.00000E+00     0.00
 -125.00    70.00      -0.31 -999.99   -0.31    0.00000     0.00  LINEAR    5.17630E-01  -121.25    0.00000E+00     0.00
 -120.00    70.00       0.35 -999.99    0.35    0.00000     0.00  LINEAR    5.58232E-01  -121.25    0.00000E+00     0.00
 -115.00    70.00       0.90 -999.99    0.90    0.00000     0.00  LINEAR    5.94725E-01  -121.26    0.00000E+00     0.00
 -110.00    70.00       1.35 -999.99    1.35    0.00000     0.00  LINEAR    6.26166E-01  -121.26    0.00000E+00     0.00
 -105.00    70.00       1.69 -999.99    1.69    0.00000     0.00  LINEAR    6.51674E-01  -121.27    0.00000E+00     0.00
 -100.00    70.00       1.94 -999.99    1.94    0.00000     0.00  LINEAR    6.70491E-01  -121.27    0.00000E+00     0.00
  -95.00    70.00       2.09 -999.99    2.09    0.00000     0.00  LINEAR    6.82028E-01  -121.27    0.00000E+00     0.00
  -90.00    70.00       2.14 -999.99    2.14    0.00000     0.00  LINEAR    6.85916E-01  -121.27    0.00000E+00     0.00
  -85.00    70.00       2.09 -999.99    2.09    0.00000     0.00  LINEAR    6.82028E-01  -121.27    0.00000E+00     0.00
[...]
  -70.00   340.00       1.45 -999.99    1.45    0.00000     0.00  LINEAR    6.33699E-01  -121.92    0.00000E+00     0.00
  -65.00   340.00       1.01 -999.99    1.01    0.00000     0.00  LINEAR    6.02062E-01  -121.85    0.00000E+00     0.00
  -60.00   340.00       0.46 -999.99    0.46    0.00000     0.00  LINEAR    5.65244E-01  -121.76    0.00000E+00     0.00
  -55.00   340.00      -0.20 -999.99   -0.20    0.00000     0.00  LINEAR    5.24168E-01  -121.67    0.00000E+00     0.00
  -50.00   340.00      -0.97 -999.99   -0.97    0.00000     0.00  LINEAR    4.79778E-01  -121.57    0.00000E+00     0.00
  -45.00   340.00      -1.86 -999.99   -1.86    0.00000     0.00  LINEAR    4.32989E-01  -121.46    0.00000E+00     0.00
  -40.00   340.00      -2.89 -999.99   -2.89    0.00000     0.00  LINEAR    3.84645E-01  -121.37    0.00000E+00     0.00
  -35.00   340.00      -4.07 -999.99   -4.07    0.00000     0.00  LINEAR    3.35483E-01  -121.28    0.00000E+00     0.00
  -30.00   340.00      -5.46 -999.99   -5.46    0.00000     0.00  LINEAR    2.86105E-01  -121.22    0.00000E+00     0.00
  -25.00   340.00      -7.09 -999.99   -7.09    0.00000     0.00  LINEAR    2.36963E-01  -121.18    0.00000E+00     0.00
  -20.00   340.00      -9.09 -999.99   -9.09    0.00000     0.00  LINEAR    1.88347E-01  -121.17    0.00000E+00     0.00
  -15.00   340.00     -11.64 -999.99  -11.64    0.00000     0.00  LINEAR    1.40398E-01  -121.19    0.00000E+00     0.00
  -10.00   340.00     -15.21 -999.99  -15.21    0.00000     0.00  LINEAR    9.31157E-02  -121.25    0.00000E+00     0.00
   -5.00   340.00     -21.26 -999.99  -21.26    0.00000     0.00  LINEAR    4.63838E-02  -121.33    0.00000E+00     0.00
    0.00   340.00    -999.99 -999.99 -999.99    0.00000     0.00            0.00000E+00     0.00    0.00000E+00     0.00
 -180.00   345.00    -999.99 -999.99 -999.99    0.00000     0.00            5.41437E-12    58.55    0.00000E+00     0.00
 -175.00   345.00     -21.26 -999.99  -21.26    0.00000     0.00  LINEAR    4.63859E-02  -121.33    0.00000E+00     0.00
 -170.00   345.00     -15.21 -999.99  -15.21    0.00000     0.00  LINEAR    9.31260E-02  -121.24    0.00000E+00     0.00
 -165.00   345.00     -11.64 -999.99  -11.64    0.00000     0.00  LINEAR    1.40425E-01  -121.19    0.00000E+00     0.00
 -160.00   345.00      -9.09 -999.99   -9.09    0.00000     0.00  LINEAR    1.88397E-01  -121.16    0.00000E+00     0.00
 -155.00   345.00      -7.09 -999.99   -7.09    0.00000     0.00  LINEAR    2.37041E-01  -121.18    0.00000E+00     0.00
 -150.00   345.00      -5.45 -999.99   -5.45    0.00000     0.00  LINEAR    2.86212E-01  -121.22    0.00000E+00     0.00
 -145.00   345.00      -4.07 -999.99   -4.07    0.00000     0.00  LINEAR    3.35612E-01  -121.30    0.00000E+00     0.00
 -140.00   345.00      -2.88 -999.99   -2.88    0.00000     0.00  LINEAR    3.84786E-01  -121.39    0.00000E+00     0.00
 -135.00   345.00      -1.85 -999.99   -1.85    0.00000     0.00  LINEAR    4.33128E-01  -121.49    0.00000E+00     0.00
 -130.00   345.00      -0.96 -999.99   -0.96    0.00000     0.00  LINEAR    4.79899E-01  -121.60    0.00000E+00     0.00
 -125.00   345.00      -0.20 -999.99   -0.20    0.00000     0.00  LINEAR    5.24257E-01  -121.71    0.00000E+00     0.00
 -120.00   345.00       0.46 -999.99    0.46    0.00000     0.00  LINEAR    5.65289E-01  -121.81    0.00000E+00     0.00
 -115.00   345.00       1.01 -999.99    1.01    0.00000     0.00  LINEAR    6.02056E-01  -121.90    0.00000E+00     0.00
 -110.00   345.00       1.45 -999.99    1.45    0.00000     0.00  LINEAR    6.33640E-01  -121.97    0.00000E+00     0.00
 -105.00   345.00       1.79 -999.99    1.79    0.00000     0.00  LINEAR    6.59201E-01  -122.03    0.00000E+00     0.00
 -100.00   345.00       2.04 -999.99    2.04    0.00000     0.00  LINEAR    6.78017E-01  -122.07    0.00000E+00     0.00
  -95.00   345.00       2.18 -999.99    2.18    0.00000     0.00  LINEAR    6.89537E-01  -122.10    0.00000E+00     0.00
  -90.00   345.00       2.23 -999.99    2.23    0.00000     0.00  LINEAR    6.93417E-01  -122.11    0.00000E+00     0.00
  -85.00   345.00       2.18 -999.99    2.18    0.00000     0.00  LINEAR    6.89537E-01  -122.10    0.00000E+00     0.00
  -80.00   345.00       2.04 -999.99    2.04    0.00000     0.00  LINEAR    6.78017E-01  -122.07    0.00000E+00     0.00
  -75.00   345.00       1.79 -999.99    1.79    0.00000     0.00  LINEAR    6.59201E-01  -122.03    0.00000E+00     0.00
  -70.00   345.00       1.45 -999.99    1.45    0.00000     0.00  LINEAR    6.33640E-01  -121.97    0.00000E+00     0.00
  -65.00   345.00       1.01 -999.99    1.01    0.00000     0.00  LINEAR    6.02056E-01  -121.90    0.00000E+00     0.00
  -60.00   345.00       0.46 -999.99    0.46    0.00000     0.00  LINEAR    5.65289E-01  -121.81    0.00000E+00     0.00
  -55.00   345.00      -0.20 -999.99   -0.20    0.00000     0.00  LINEAR    5.24257E-01  -121.71    0.00000E+00     0.00
  -50.00   345.00      -0.96 -999.99   -0.96    0.00000     0.00  LINEAR    4.79899E-01  -121.60    0.00000E+00     0.00
  -45.00   345.00      -1.85 -999.99   -1.85    0.00000     0.00  LINEAR    4.33128E-01  -121.49    0.00000E+00     0.00
  -40.00   345.00      -2.88 -999.99   -2.88    0.00000     0.00  LINEAR    3.84786E-01  -121.39    0.00000E+00     0.00
  -35.00   345.00      -4.07 -999.99   -4.07    0.00000     0.00  LINEAR    3.35612E-01  -121.30    0.00000E+00     0.00
  -30.00   345.00      -5.45 -999.99   -5.45    0.00000     0.00  LINEAR    2.86212E-01  -121.22    0.00000E+00     0.00
  -25.00   345.00      -7.09 -999.99   -7.09    0.00000     0.00  LINEAR    2.37041E-01  -121.18    0.00000E+00     0.00
  -20.00   345.00      -9.09 -999.99   -9.09    0.00000     0.00  LINEAR    1.88397E-01  -121.16    0.00000E+00     0.00
  -15.00   345.00     -11.64 -999.99  -11.64    0.00000     0.00  LINEAR    1.40425E-01  -121.19    0.00000E+00     0.00
  -10.00   345.00     -15.21 -999.99  -15.21    0.00000     0.00  LINEAR    9.31260E-02  -121.24    0.00000E+00     0.00
   -5.00   345.00     -21.26 -999.99  -21.26    0.00000     0.00  LINEAR    4.63859E-02  -121.33    0.00000E+00     0.00
    0.00   345.00    -999.99 -999.99 -999.99    0.00000     0.00            0.00000E+00     0.00    0.00000E+00     0.00
 -180.00   350.00    -999.99 -999.99 -999.99    0.00000     0.00            5.41437E-12    58.55    0.00000E+00     0.00
 -175.00   350.00     -21.26 -999.99  -21.26    0.00000     0.00  LINEAR    4.63873E-02  -121.33    0.00000E+00     0.00
 -170.00   350.00     -15.20 -999.99  -15.20    0.00000     0.00  LINEAR    9.31335E-02  -121.24    0.00000E+00     0.00
 -165.00   350.00     -11.64 -999.99  -11.64    0.00000     0.00  LINEAR    1.40444E-01  -121.18    0.00000E+00     0.00
 -160.00   350.00      -9.08 -999.99   -9.08    0.00000     0.00  LINEAR    1.88434E-01  -121.16    0.00000E+00     0.00
 -155.00   350.00      -7.09 -999.99   -7.09    0.00000     0.00  LINEAR    2.37097E-01  -121.18    0.00000E+00     0.00
 -150.00   350.00      -5.45 -999.99   -5.45    0.00000     0.00  LINEAR    2.86288E-01  -121.23    0.00000E+00     0.00
 -145.00   350.00      -4.07 -999.99   -4.07    0.00000     0.00  LINEAR    3.35703E-01  -121.31    0.00000E+00     0.00
 -140.00   350.00      -2.88 -999.99   -2.88    0.00000     0.00  LINEAR    3.84883E-01  -121.40    0.00000E+00     0.00
 -135.00   350.00      -1.85 -999.99   -1.85    0.00000     0.00  LINEAR    4.33220E-01  -121.51    0.00000E+00     0.00
 -130.00   350.00      -0.96 -999.99   -0.96    0.00000     0.00  LINEAR    4.79976E-01  -121.63    0.00000E+00     0.00
 -125.00   350.00      -0.20 -999.99   -0.20    0.00000     0.00  LINEAR    5.24307E-01  -121.74    0.00000E+00     0.00
 -120.00   350.00       0.46 -999.99    0.46    0.00000     0.00  LINEAR    5.65303E-01  -121.84    0.00000E+00     0.00
 -115.00   350.00       1.01 -999.99    1.01    0.00000     0.00  LINEAR    6.02029E-01  -121.93    0.00000E+00     0.00
 -110.00   350.00       1.45 -999.99    1.45    0.00000     0.00  LINEAR    6.33573E-01  -122.00    0.00000E+00     0.00
 -105.00   350.00       1.79 -999.99    1.79    0.00000     0.00  LINEAR    6.59097E-01  -122.06    0.00000E+00     0.00
 -100.00   350.00       2.04 -999.99    2.04    0.00000     0.00  LINEAR    6.77884E-01  -122.11    0.00000E+00     0.00
  -95.00   350.00       2.18 -999.99    2.18    0.00000     0.00  LINEAR    6.89386E-01  -122.13    0.00000E+00     0.00
  -90.00   350.00       2.23 -999.99    2.23    0.00000     0.00  LINEAR    6.93259E-01  -122.14    0.00000E+00     0.00
  -85.00   350.00       2.18 -999.99    2.18    0.00000     0.00  LINEAR    6.89386E-01  -122.13    0.00000E+00     0.00
  -80.00   350.00       2.04 -999.99    2.04    0.00000     0.00  LINEAR    6.77884E-01  -122.11    0.00000E+00     0.00
  -75.00   350.00       1.79 -999.99    1.79    0.00000     0.00  LINEAR    6.59097E-01  -122.06    0.00000E+00     0.00
  -70.00   350.00       1.45 -999.99    1.45    0.00000     0.00  LINEAR    6.33573E-01  -122.00    0.00000E+00     0.00
  -65.00   350.00       1.01 -999.99    1.01    0.00000     0.00  LINEAR    6.02029E-01  -121.93    0.00000E+00     0.00
  -60.00   350.00       0.46 -999.99    0.46    0.00000     0.00  LINEAR    5.65303E-01  -121.84    0.00000E+00     0.00
  -55.00   350.00      -0.20 -999.99   -0.20    0.00000     0.00  LINEAR    5.24307E-01  -121.74    0.00000E+00     0.00
  -50.00   350.00      -0.96 -999.99   -0.96    0.00000     0.00  LINEAR    4.79976E-01  -121.63    0.00000E+00     0.00
  -45.00   350.00      -1.85 -999.99   -1.85    0.00000     0.00  LINEAR    4.33220E-01  -121.51    0.00000E+00     0.00
  -40.00   350.00      -2.88 -999.99   -2.88    0.00000     0.00  LINEAR    3.84883E-01  -121.40    0.00000E+00     0.00
  -35.00   350.00      -4.07 -999.99   -4.07    0.00000     0.00  LINEAR    3.35703E-01  -121.31    0.00000E+00     0.00
  -30.00   350.00      -5.45 -999.99   -5.45    0.00000     0.00  LINEAR    2.86288E-01  -121.23    0.00000E+00     0.00
  -25.00   350.00      -7.09 -999.99   -7.09    0.00000     0.00  LINEAR    2.37097E-01  -121.18    0.00000E+00     0.00
  -20.00   350.00      -9.08 -999.99   -9.08    0.00000     0.00  LINEAR    1.88434E-01  -121.16    0.00000E+00     0.00
  -15.00   350.00     -11.64 -999.99  -11.64    0.00000     0.00  LINEAR    1.40444E-01  -121.18    0.00000E+00     0.00
  -10.00   350.00     -15.20 -999.99  -15.20    0.00000     0.00  LINEAR    9.31335E-02  -121.24    0.00000E+00     0.00
   -5.00   350.00     -21.26 -999.99  -21.26    0.00000     0.00  LINEAR    4.63873E-02  -121.33    0.00000E+00     0.00
    0.00   350.00    -999.99 -999.99 -999.99    0.00000     0.00            0.00000E+00     0.00    0.00000E+00     0.00
 -180.00   355.00    -999.99 -999.99 -999.99    0.00000     0.00            5.41437E-12    58.55    0.00000E+00     0.00
 -175.00   355.00     -21.26 -999.99  -21.26    0.00000     0.00  LINEAR    4.63882E-02  -121.33    0.00000E+00     0.00
 -170.00   355.00     -15.20 -999.99  -15.20    0.00000     0.00  LINEAR    9.31381E-02  -121.24    0.00000E+00     0.00
 -165.00   355.00     -11.64 -999.99  -11.64    0.00000     0.00  LINEAR    1.40456E-01  -121.18    0.00000E+00     0.00
 -160.00   355.00      -9.08 -999.99   -9.08    0.00000     0.00  LINEAR    1.88455E-01  -121.16    0.00000E+00     0.00
 -155.00   355.00      -7.09 -999.99   -7.09    0.00000     0.00  LINEAR    2.37131E-01  -121.18    0.00000E+00     0.00
 -150.00   355.00      -5.45 -999.99   -5.45    0.00000     0.00  LINEAR    2.86333E-01  -121.23    0.00000E+00     0.00
 -145.00   355.00      -4.07 -999.99   -4.07    0.00000     0.00  LINEAR    3.35756E-01  -121.31    0.00000E+00     0.00
 -140.00   355.00      -2.88 -999.99   -2.88    0.00000     0.00  LINEAR    3.84939E-01  -121.41    0.00000E+00     0.00
 -135.00   355.00      -1.85 -999.99   -1.85    0.00000     0.00  LINEAR    4.33273E-01  -121.53    0.00000E+00     0.00
 -130.00   355.00      -0.96 -999.99   -0.96    0.00000     0.00  LINEAR    4.80017E-01  -121.64    0.00000E+00     0.00
 -125.00   355.00      -0.20 -999.99   -0.20    0.00000     0.00  LINEAR    5.24330E-01  -121.75    0.00000E+00     0.00
 -120.00   355.00       0.46 -999.99    0.46    0.00000     0.00  LINEAR    5.65304E-01  -121.86    0.00000E+00     0.00
 -115.00   355.00       1.00 -999.99    1.00    0.00000     0.00  LINEAR    6.02005E-01  -121.95    0.00000E+00     0.00
 -110.00   355.00       1.45 -999.99    1.45    0.00000     0.00  LINEAR    6.33523E-01  -122.02    0.00000E+00     0.00
 -105.00   355.00       1.79 -999.99    1.79    0.00000     0.00  LINEAR    6.59024E-01  -122.08    0.00000E+00     0.00
 -100.00   355.00       2.03 -999.99    2.03    0.00000     0.00  LINEAR    6.77792E-01  -122.13    0.00000E+00     0.00
  -95.00   355.00       2.18 -999.99    2.18    0.00000     0.00  LINEAR    6.89283E-01  -122.15    0.00000E+00     0.00
  -90.00   355.00       2.23 -999.99    2.23    0.00000     0.00  LINEAR    6.93152E-01  -122.16    0.00000E+00     0.00
  -85.00   355.00       2.18 -999.99    2.18    0.00000     0.00  LINEAR    6.89283E-01  -122.15    0.00000E+00     0.00
  -80.00   355.00       2.03 -999.99    2.03    0.00000     0.00  LINEAR    6.77792E-01  -122.13    0.00000E+00     0.00
  -75.00   355.00       1.79 -999.99    1.79    0.00000     0.00  LINEAR    6.59024E-01  -122.08    0.00000E+00     0.00
  -70.00   355.00       1.45 -999.99    1.45    0.00000     0.00  LINEAR    6.33523E-01  -122.02    0.00000E+00     0.00
  -65.00   355.00       1.00 -999.99    1.00    0.00000     0.00  LINEAR    6.02005E-01  -121.95    0.00000E+00     0.00
  -60.00   355.00       0.46 -999.99    0.46    0.00000     0.00  LINEAR    5.65304E-01  -121.86    0.00000E+00     0.00
  -55.00   355.00      -0.20 -999.99   -0.20    0.00000     0.00  LINEAR    5.24330E-01  -121.75    0.00000E+00     0.00
  -50.00   355.00      -0.96 -999.99   -0.96    0.00000     0.00  LINEAR    4.80017E-01  -121.64    0.00000E+00     0.00
  -45.00   355.00      -1.85 -999.99   -1.85    0.00000     0.00  LINEAR    4.33273E-01  -121.53    0.00000E+00     0.00
  -40.00   355.00      -2.88 -999.99   -2.88    0.00000     0.00  LINEAR    3.84939E-01  -121.41    0.00000E+00     0.00
  -35.00   355.00      -4.07 -999.99   -4.07    0.00000     0.00  LINEAR    3.35756E-01  -121.31    0.00000E+00     0.00
  -30.00   355.00      -5.45 -999.99   -5.45    0.00000     0.00  LINEAR    2.86333E-01  -121.23    0.00000E+00     0.00
  -25.00   355.00      -7.09 -999.99   -7.09    0.00000     0.00  LINEAR    2.37131E-01  -121.18    0.00000E+00     0.00
  -20.00   355.00      -9.08 -999.99   -9.08    0.00000     0.00  LINEAR    1.88455E-01  -121.16    0.00000E+00     0.00
  -15.00   355.00     -11.64 -999.99  -11.64    0.00000     0.00  LINEAR    1.40456E-01  -121.18    0.00000E+00     0.00
  -10.00   355.00     -15.20 -999.99  -15.20    0.00000     0.00  LINEAR    9.31381E-02  -121.24    0.00000E+00     0.00
   -5.00   355.00     -21.26 -999.99  -21.26    0.00000     0.00  LINEAR    4.63882E-02  -121.33    0.00000E+00     0.00
    0.00   355.00    -999.99 -999.99 -999.99    0.00000     0.00            0.00000E+00     0.00    0.00000E+00     0.00
 -180.00   360.00    -999.99 -999.99 -999.99    0.00000     0.00            5.41437E-12    58.55    0.00000E+00     0.00
 -175.00   360.00     -21.26 -999.99  -21.26    0.00000     0.00  LINEAR    4.63885E-02  -121.33    0.00000E+00     0.00
 -170.00   360.00     -15.20 -999.99  -15.20    0.00000     0.00  LINEAR    9.31396E-02  -121.24    0.00000E+00     0.00
 -165.00   360.00     -11.64 -999.99  -11.64    0.00000     0.00  LINEAR    1.40459E-01  -121.18    0.00000E+00     0.00
 -160.00   360.00      -9.08 -999.99   -9.08    0.00000     0.00  LINEAR    1.88463E-01  -121.16    0.00000E+00     0.00
 -155.00   360.00      -7.09 -999.99   -7.09    0.00000     0.00  LINEAR    2.37142E-01  -121.18    0.00000E+00     0.00
 -150.00   360.00      -5.45 -999.99   -5.45    0.00000     0.00  LINEAR    2.86348E-01  -121.24    0.00000E+00     0.00
 -145.00   360.00      -4.07 -999.99   -4.07    0.00000     0.00  LINEAR    3.35774E-01  -121.32    0.00000E+00     0.00
 -140.00   360.00      -2.88 -999.99   -2.88    0.00000     0.00  LINEAR    3.84958E-01  -121.42    0.00000E+00     0.00
 -135.00   360.00      -1.85 -999.99   -1.85    0.00000     0.00  LINEAR    4.33290E-01  -121.53    0.00000E+00     0.00
 -130.00   360.00      -0.96 -999.99   -0.96    0.00000     0.00  LINEAR    4.80030E-01  -121.65    0.00000E+00     0.00
 -125.00   360.00      -0.19 -999.99   -0.19    0.00000     0.00  LINEAR    5.24337E-01  -121.76    0.00000E+00     0.00
 -120.00   360.00       0.46 -999.99    0.46    0.00000     0.00  LINEAR    5.65303E-01  -121.86    0.00000E+00     0.00
 -115.00   360.00       1.00 -999.99    1.00    0.00000     0.00  LINEAR    6.01995E-01  -121.95    0.00000E+00     0.00
 -110.00   360.00       1.45 -999.99    1.45    0.00000     0.00  LINEAR    6.33505E-01  -122.03    0.00000E+00     0.00
 -105.00   360.00       1.79 -999.99    1.79    0.00000     0.00  LINEAR    6.58997E-01  -122.09    0.00000E+00     0.00
 -100.00   360.00       2.03 -999.99    2.03    0.00000     0.00  LINEAR    6.77760E-01  -122.13    0.00000E+00     0.00
  -95.00   360.00       2.18 -999.99    2.18    0.00000     0.00  LINEAR    6.89247E-01  -122.16    0.00000E+00     0.00
  -90.00   360.00       2.23 -999.99    2.23    0.00000     0.00  LINEAR    6.93114E-01  -122.17    0.00000E+00     0.00
  -85.00   360.00       2.18 -999.99    2.18    0.00000     0.00  LINEAR    6.89247E-01  -122.16    0.00000E+00     0.00
  -80.00   360.00       2.03 -999.99    2.03    0.00000     0.00  LINEAR    6.77760E-01  -122.13    0.00000E+00     0.00
  -75.00   360.00       1.79 -999.99    1.79    0.00000     0.00  LINEAR    6.58997E-01  -122.09    0.00000E+00     0.00
  -70.00   360.00       1.45 -999.99    1.45    0.00000     0.00  LINEAR    6.33505E-01  -122.03    0.00000E+00     0.00
  -65.00   360.00       1.00 -999.99    1.00    0.00000     0.00  LINEAR    6.01995E-01  -121.95    0.00000E+00     0.00
  -60.00   360.00       0.46 -999.99    0.46    0.00000     0.00  LINEAR    5.65303E-01  -121.86    0.00000E+00     0.00
  -55.00   360.00      -0.19 -999.99   -0.19    0.00000     0.00  LINEAR    5.24337E-01  -121.76    0.00000E+00     0.00
  -50.00   360.00      -0.96 -999.99   -0.96    0.00000     0.00  LINEAR    4.80030E-01  -121.65    0.00000E+00     0.00
  -45.00   360.00      -1.85 -999.99   -1.85    0.00000     0.00  LINEAR    4.33290E-01  -121.53    0.00000E+00     0.00
  -40.00   360.00      -2.88 -999.99   -2.88    0.00000     0.00  LINEAR    3.84958E-01  -121.42    0.00000E+00     0.00
  -35.00   360.00      -4.07 -999.99   -4.07    0.00000     0.00  LINEAR    3.35774E-01  -121.32    0.00000E+00     0.00
  -30.00   360.00      -5.45 -999.99   -5.45    0.00000     0.00  LINEAR    2.86348E-01  -121.24    0.00000E+00     0.00
  -25.00   360.00      -7.09 -999.99   -7.09    0.00000     0.00  LINEAR    2.37142E-01  -121.18    0.00000E+00     0.00
  -20.00   360.00      -9.08 -999.99   -9.08    0.00000     0.00  LINEAR    1.88463E-01  -121.16    0.00000E+00     0.00
  -15.00   360.00     -11.64 -999.99  -11.64    0.00000     0.00  LINEAR    1.40459E-01  -121.18    0.00000E+00     0.00
  -10.00   360.00     -15.20 -999.99  -15.20    0.00000     0.00  LINEAR    9.31396E-02  -121.24    0.00000E+00     0.00
   -5.00   360.00     -21.26 -999.99  -21.26    0.00000     0.00  LINEAR    4.63885E-02  -121.33    0.00000E+00     0.00
    0.00   360.00    -999.99 -999.99 -999.99    0.00000     0.00            0.00000E+00     0.00    0.00000E+00     0.00


   AVERAGE POWER GAIN= 9.98899E-01       SOLID ANGLE USED IN AVERAGING=( 4.0000)*PI STERADIANS.








 ***** DATA CARD NO.  7   EN   0    37    73  1003 -1.80000E+02  0.00000E+00  5.00000E+00  5.00000E+00  0.00000E+00  0.00000E+00

 RUN TIME =     0.219
