1



                                 *********************************************

                                    NUMERICAL ELECTROMAGNETICS CODE (NEC-2D)

                                 *********************************************




                                     - - - - COMMENTS - - - -


                          A vertical dipole array, 2 element                                         
                          		                                                                         
                                                                                                     
                                                                                                     
                                                                                                     
                                                                                                     
                                                                                                     




                                 - - - STRUCTURE SPECIFICATION - - -

                                     COORDINATES MUST BE INPUT IN
                                     METERS OR BE SCALED TO METERS
                                     BEFORE STRUCTURE INPUT IS ENDED


  WIRE                                                                               NO. OF    FIRST  LAST     TAG
  NO.        X1         Y1         Z1          X2         Y2         Z2      RADIUS   SEG.     SEG.   SEG.     NO.
     1    9.99335    0.00000   -4.99667     9.99335    0.00000    4.99667    0.00005     21        1    21       2
     2    0.00000    0.00000   -4.99667     0.00000    0.00000    4.99667    0.00005     21       22    42       1

   TOTAL SEGMENTS USED=   42     NO. SEG. IN A SYMMETRIC CELL=   42     SYMMETRY FLAG=  0


         - MULTIPLE WIRE JUNCTIONS -
 JUNCTION    SEGMENTS  (- FOR END 1, + FOR END 2)
  NONE




                                 - - - - SEGMENTATION DATA - - - -

                                        COORDINATES IN METERS

                         I+ AND I- INDICATE THE SEGMENTS BEFORE AND AFTER I


  SEG.   COORDINATES OF SEG. CENTER     SEG.     ORIENTATION ANGLES    WIRE    CONNECTION DATA   TAG
  NO.       X         Y         Z       LENGTH     ALPHA     BETA      RADIUS    I-   I    I+    NO.
     1   9.99335   0.00000  -4.75874   0.47587   90.00000   0.00000   0.00005     0    1    2      2
     2   9.99335   0.00000  -4.28286   0.47587   90.00000   0.00000   0.00005     1    2    3      2
     3   9.99335   0.00000  -3.80699   0.47587   90.00000   0.00000   0.00005     2    3    4      2
     4   9.99335   0.00000  -3.33112   0.47587   90.00000   0.00000   0.00005     3    4    5      2
     5   9.99335   0.00000  -2.85524   0.47587   90.00000   0.00000   0.00005     4    5    6      2
     6   9.99335   0.00000  -2.37937   0.47587   90.00000   0.00000   0.00005     5    6    7      2
     7   9.99335   0.00000  -1.90350   0.47587   90.00000   0.00000   0.00005     6    7    8      2
     8   9.99335   0.00000  -1.42762   0.47587   90.00000   0.00000   0.00005     7    8    9      2
     9   9.99335   0.00000  -0.95175   0.47587   90.00000   0.00000   0.00005     8    9   10      2
    10   9.99335   0.00000  -0.47587   0.47587   90.00000   0.00000   0.00005     9   10   11      2
    11   9.99335   0.00000   0.00000   0.47587   90.00000   0.00000   0.00005    10   11   12      2
    12   9.99335   0.00000   0.47587   0.47587   90.00000   0.00000   0.00005    11   12   13      2
    13   9.99335   0.00000   0.95175   0.47587   90.00000   0.00000   0.00005    12   13   14      2
    14   9.99335   0.00000   1.42762   0.47587   90.00000   0.00000   0.00005    13   14   15      2
    15   9.99335   0.00000   1.90350   0.47587   90.00000   0.00000   0.00005    14   15   16      2
    16   9.99335   0.00000   2.37937   0.47587   90.00000   0.00000   0.00005    15   16   17      2
    17   9.99335   0.00000   2.85524   0.47587   90.00000   0.00000   0.00005    16   17   18      2
    18   9.99335   0.00000   3.33112   0.47587   90.00000   0.00000   0.00005    17   18   19      2
    19   9.99335   0.00000   3.80699   0.47587   90.00000   0.00000   0.00005    18   19   20      2
    20   9.99335   0.00000   4.28286   0.47587   90.00000   0.00000   0.00005    19   20   21      2
    21   9.99335   0.00000   4.75874   0.47587   90.00000   0.00000   0.00005    20   21    0      2
    22   0.00000   0.00000  -4.75874   0.47587   90.00000   0.00000   0.00005     0   22   23      1
    23   0.00000   0.00000  -4.28286   0.47587   90.00000   0.00000   0.00005    22   23   24      1
    24   0.00000   0.00000  -3.80699   0.47587   90.00000   0.00000   0.00005    23   24   25      1
    25   0.00000   0.00000  -3.33112   0.47587   90.00000   0.00000   0.00005    24   25   26      1
    26   0.00000   0.00000  -2.85524   0.47587   90.00000   0.00000   0.00005    25   26   27      1
    27   0.00000   0.00000  -2.37937   0.47587   90.00000   0.00000   0.00005    26   27   28      1
    28   0.00000   0.00000  -1.90350   0.47587   90.00000   0.00000   0.00005    27   28   29      1
    29   0.00000   0.00000  -1.42762   0.47587   90.00000   0.00000   0.00005    28   29   30      1
    30   0.00000   0.00000  -0.95175   0.47587   90.00000   0.00000   0.00005    29   30   31      1
    31   0.00000   0.00000  -0.47587   0.47587   90.00000   0.00000   0.00005    30   31   32      1
    32   0.00000   0.00000   0.00000   0.47587   90.00000   0.00000   0.00005    31   32   33      1
    33   0.00000   0.00000   0.47587   0.47587   90.00000   0.00000   0.00005    32   33   34      1
    34   0.00000   0.00000   0.95175   0.47587   90.00000   0.00000   0.00005    33   34   35      1
    35   0.00000   0.00000   1.42762   0.47587   90.00000   0.00000   0.00005    34   35   36      1
    36   0.00000   0.00000   1.90350   0.47587   90.00000   0.00000   0.00005    35   36   37      1
    37   0.00000   0.00000   2.37937   0.47587   90.00000   0.00000   0.00005    36   37   38      1
    38   0.00000   0.00000   2.85524   0.47587   90.00000   0.00000   0.00005    37   38   39      1
    39   0.00000   0.00000   3.33112   0.47587   90.00000   0.00000   0.00005    38   39   40      1
    40   0.00000   0.00000   3.80699   0.47587   90.00000   0.00000   0.00005    39   40   41      1
    41   0.00000   0.00000   4.28286   0.47587   90.00000   0.00000   0.00005    40   41   42      1
    42   0.00000   0.00000   4.75874   0.47587   90.00000   0.00000   0.00005    41   42    0      1






 ***** DATA CARD NO.  1   GN  -1     0     0     0  0.00000E+00  0.00000E+00  0.00000E+00  0.00000E+00  0.00000E+00  0.00000E+00
 ***** DATA CARD NO.  2   EK   0     0     0     0  0.00000E+00  0.00000E+00  0.00000E+00  0.00000E+00  0.00000E+00  0.00000E+00
 ***** DATA CARD NO.  3   EX   0     2    11     0  1.00000E+00  0.00000E+00  0.00000E+00  0.00000E+00  0.00000E+00  0.00000E+00
 ***** DATA CARD NO.  4   EX   0     1    11     0  1.00000E+00  0.00000E+00  0.00000E+00  0.00000E+00  0.00000E+00  0.00000E+00
 ***** DATA CARD NO.  5   NT   1    11     2    11  0.00000E+00  0.00000E+00  0.00000E+00  0.00000E+00  0.00000E+00  0.00000E+00
 ***** DATA CARD NO.  6   FR   0     0     0     0  1.50100E+01  0.00000E+00  0.00000E+00  0.00000E+00  0.00000E+00  0.00000E+00
 ***** DATA CARD NO.  7   RP   0    37    73  1003 -1.80000E+02  0.00000E+00  5.00000E+00  5.00000E+00  0.00000E+00  0.00000E+00




                                 - - - - - - FREQUENCY - - - - - -

                                    FREQUENCY= 1.5010E+01 MHZ
                                    WAVELENGTH= 1.9973E+01 METERS




                    APPROXIMATE INTEGRATION EMPLOYED FOR SEGMENTS MORE THAN   1.000 WAVELENGTHS APART

                    THE EXTENDED THIN WIRE KERNEL WILL BE USED



                               - - - STRUCTURE IMPEDANCE LOADING - - -

                                   THIS STRUCTURE IS NOT LOADED



                                  - - - ANTENNA ENVIRONMENT - - -

                                            FREE SPACE



                                - - - MATRIX TIMING - - -

                        FILL=    0.016 SEC.,  FACTOR=    0.000 SEC.



                                            - - - NETWORK DATA - - -

      - FROM -    - TO -                          -  -  ADMITTANCE MATRIX ELEMENTS (MHOS)  -  -
      TAG  SEG.   TAG  SEG.             (ONE,ONE)                   (ONE,TWO)                   (TWO,TWO)
      NO.   NO.   NO.   NO.        REAL          IMAG.         REAL          IMAG.         REAL          IMAG.
        1    32     2    11     0.0000E+00    0.0000E+00    0.0000E+00    0.0000E+00    0.0000E+00    0.0000E+00           



                           - - - STRUCTURE EXCITATION DATA AT NETWORK CONNECTION POINTS - - -

   TAG   SEG.    VOLTAGE (VOLTS)         CURRENT (AMPS)         IMPEDANCE (OHMS)        ADMITTANCE (MHOS)      POWER
   NO.   NO.    REAL        IMAG.       REAL        IMAG.       REAL        IMAG.       REAL        IMAG.     (WATTS)
     1    32 1.00000E+00 0.00000E+00 1.51261E-02-3.56551E-03 6.26308E+01 1.47632E+01 1.51261E-02-3.56551E-03 7.56306E-03
     2    11 1.00000E+00 0.00000E+00 1.51261E-02-3.56551E-03 6.26308E+01 1.47632E+01 1.51261E-02-3.56551E-03 7.56306E-03



                                          - - - ANTENNA INPUT PARAMETERS - - -

   TAG   SEG.    VOLTAGE (VOLTS)         CURRENT (AMPS)         IMPEDANCE (OHMS)        ADMITTANCE (MHOS)      POWER
   NO.   NO.    REAL        IMAG.       REAL        IMAG.       REAL        IMAG.       REAL        IMAG.     (WATTS)
     2    11 1.00000E+00 0.00000E+00 1.51261E-02-3.56551E-03 6.26308E+01 1.47632E+01 1.51261E-02-3.56551E-03 7.56306E-03
     1    32 1.00000E+00 0.00000E+00 1.51261E-02-3.56551E-03 6.26308E+01 1.47632E+01 1.51261E-02-3.56551E-03 7.56306E-03



                             - - - CURRENTS AND LOCATION - - -

                                 DISTANCES IN WAVELENGTHS


  SEG.  TAG    COORD. OF SEG. CENTER     SEG.            - - - CURRENT (AMPS) - - -
  NO.   NO.     X        Y        Z      LENGTH     REAL        IMAG.       MAG.        PHASE
     1    2   0.5003   0.0000  -0.2383  0.02383   1.2633E-03 -3.5653E-04  1.3126E-03  -15.760
     2    2   0.5003   0.0000  -0.2144  0.02383   3.5914E-03 -1.0023E-03  3.7286E-03  -15.594
     3    2   0.5003   0.0000  -0.1906  0.02383   5.7608E-03 -1.5887E-03  5.9759E-03  -15.417
     4    2   0.5003   0.0000  -0.1668  0.02383   7.7755E-03 -2.1167E-03  8.0585E-03  -15.228
     5    2   0.5003   0.0000  -0.1430  0.02383   9.6063E-03 -2.5784E-03  9.9463E-03  -15.025
     6    2   0.5003   0.0000  -0.1191  0.02383   1.1221E-02 -2.9652E-03  1.1606E-02  -14.803
     7    2   0.5003   0.0000  -0.0953  0.02383   1.2588E-02 -3.2691E-03  1.3006E-02  -14.558
     8    2   0.5003   0.0000  -0.0715  0.02383   1.3681E-02 -3.4832E-03  1.4118E-02  -14.284
     9    2   0.5003   0.0000  -0.0477  0.02383   1.4478E-02 -3.6019E-03  1.4920E-02  -13.970
    10    2   0.5003   0.0000  -0.0238  0.02383   1.4963E-02 -3.6199E-03  1.5395E-02  -13.599
    11    2   0.5003   0.0000   0.0000  0.02383   1.5126E-02 -3.5655E-03  1.5541E-02  -13.264
    12    2   0.5003   0.0000   0.0238  0.02383   1.4963E-02 -3.6199E-03  1.5395E-02  -13.599
    13    2   0.5003   0.0000   0.0477  0.02383   1.4478E-02 -3.6019E-03  1.4920E-02  -13.970
    14    2   0.5003   0.0000   0.0715  0.02383   1.3681E-02 -3.4832E-03  1.4118E-02  -14.284
    15    2   0.5003   0.0000   0.0953  0.02383   1.2588E-02 -3.2691E-03  1.3006E-02  -14.558
    16    2   0.5003   0.0000   0.1191  0.02383   1.1221E-02 -2.9652E-03  1.1606E-02  -14.803
    17    2   0.5003   0.0000   0.1430  0.02383   9.6063E-03 -2.5784E-03  9.9463E-03  -15.025
    18    2   0.5003   0.0000   0.1668  0.02383   7.7755E-03 -2.1167E-03  8.0585E-03  -15.228
    19    2   0.5003   0.0000   0.1906  0.02383   5.7608E-03 -1.5887E-03  5.9759E-03  -15.417
    20    2   0.5003   0.0000   0.2144  0.02383   3.5914E-03 -1.0023E-03  3.7286E-03  -15.594
    21    2   0.5003   0.0000   0.2383  0.02383   1.2633E-03 -3.5653E-04  1.3126E-03  -15.760
    22    1   0.0000   0.0000  -0.2383  0.02383   1.2633E-03 -3.5653E-04  1.3126E-03  -15.760
    23    1   0.0000   0.0000  -0.2144  0.02383   3.5914E-03 -1.0023E-03  3.7286E-03  -15.594
    24    1   0.0000   0.0000  -0.1906  0.02383   5.7608E-03 -1.5887E-03  5.9759E-03  -15.417
    25    1   0.0000   0.0000  -0.1668  0.02383   7.7755E-03 -2.1167E-03  8.0585E-03  -15.228
    26    1   0.0000   0.0000  -0.1430  0.02383   9.6063E-03 -2.5784E-03  9.9463E-03  -15.025
    27    1   0.0000   0.0000  -0.1191  0.02383   1.1221E-02 -2.9652E-03  1.1606E-02  -14.803
    28    1   0.0000   0.0000  -0.0953  0.02383   1.2588E-02 -3.2691E-03  1.3006E-02  -14.558
    29    1   0.0000   0.0000  -0.0715  0.02383   1.3681E-02 -3.4832E-03  1.4118E-02  -14.284
    30    1   0.0000   0.0000  -0.0477  0.02383   1.4478E-02 -3.6019E-03  1.4920E-02  -13.970
    31    1   0.0000   0.0000  -0.0238  0.02383   1.4963E-02 -3.6199E-03  1.5395E-02  -13.599
    32    1   0.0000   0.0000   0.0000  0.02383   1.5126E-02 -3.5655E-03  1.5541E-02  -13.264
    33    1   0.0000   0.0000   0.0238  0.02383   1.4963E-02 -3.6199E-03  1.5395E-02  -13.599
    34    1   0.0000   0.0000   0.0477  0.02383   1.4478E-02 -3.6019E-03  1.4920E-02  -13.970
    35    1   0.0000   0.0000   0.0715  0.02383   1.3681E-02 -3.4832E-03  1.4118E-02  -14.284
    36    1   0.0000   0.0000   0.0953  0.02383   1.2588E-02 -3.2691E-03  1.3006E-02  -14.558
    37    1   0.0000   0.0000   0.1191  0.02383   1.1221E-02 -2.9652E-03  1.1606E-02  -14.803
    38    1   0.0000   0.0000   0.1430  0.02383   9.6063E-03 -2.5784E-03  9.9463E-03  -15.025
    39    1   0.0000   0.0000   0.1668  0.02383   7.7755E-03 -2.1167E-03  8.0585E-03  -15.228
    40    1   0.0000   0.0000   0.1906  0.02383   5.7608E-03 -1.5887E-03  5.9759E-03  -15.417
    41    1   0.0000   0.0000   0.2144  0.02383   3.5914E-03 -1.0023E-03  3.7286E-03  -15.594
    42    1   0.0000   0.0000   0.2383  0.02383   1.2633E-03 -3.5653E-04  1.3126E-03  -15.760



                                        - - - POWER BUDGET - - -

                                           INPUT POWER   = 1.5126E-02 WATTS
                                           RADIATED POWER= 1.5126E-02 WATTS
                                           STRUCTURE LOSS= 0.0000E+00 WATTS
                                           NETWORK LOSS  =-8.6736E-19 WATTS
                                           EFFICIENCY    = 100.00 PERCENT



                                                - - - RADIATION PATTERNS - - -

  - - ANGLES - -           - POWER GAINS -       - - - POLARIZATION - - -    - - - E(THETA) - - -    - - - E(PHI) - - -
  THETA     PHI        VERT.   HOR.    TOTAL      AXIAL     TILT   SENSE     MAGNITUDE    PHASE      MAGNITUDE    PHASE 
 DEGREES  DEGREES       DB      DB      DB        RATIO     DEG.              VOLTS/M    DEGREES      VOLTS/M    DEGREES
 -180.00     0.00    -999.99 -999.99 -999.99    0.00000     0.00            1.51222E-11    75.76    0.00000E+00     0.00
 -175.00     0.00     -17.42 -999.99  -17.42    0.00000     0.00  LINEAR    1.28168E-01  -112.09    0.00000E+00     0.00
 -170.00     0.00     -11.63 -999.99  -11.63    0.00000     0.00  LINEAR    2.49671E-01  -119.89    0.00000E+00     0.00
 -165.00     0.00      -8.49 -999.99   -8.49    0.00000     0.00  LINEAR    3.58254E-01  -127.57    0.00000E+00     0.00
 -160.00     0.00      -6.54 -999.99   -6.54    0.00000     0.00  LINEAR    4.48454E-01  -135.07    0.00000E+00     0.00
 -155.00     0.00      -5.32 -999.99   -5.32    0.00000     0.00  LINEAR    5.15959E-01  -142.34    0.00000E+00     0.00
 -150.00     0.00      -4.64 -999.99   -4.64    0.00000     0.00  LINEAR    5.57897E-01  -149.32    0.00000E+00     0.00
 -145.00     0.00      -4.41 -999.99   -4.41    0.00000     0.00  LINEAR    5.73047E-01  -155.96    0.00000E+00     0.00
 -140.00     0.00      -4.58 -999.99   -4.58    0.00000     0.00  LINEAR    5.61936E-01  -162.21    0.00000E+00     0.00
 -135.00     0.00      -5.14 -999.99   -5.14    0.00000     0.00  LINEAR    5.26821E-01  -168.02    0.00000E+00     0.00
 -130.00     0.00      -6.11 -999.99   -6.11    0.00000     0.00  LINEAR    4.71531E-01  -173.35    0.00000E+00     0.00
 -125.00     0.00      -7.51 -999.99   -7.51    0.00000     0.00  LINEAR    4.01196E-01  -178.14    0.00000E+00     0.00
 -120.00     0.00      -9.42 -999.99   -9.42    0.00000     0.00  LINEAR    3.21863E-01   177.62    0.00000E+00     0.00
 -115.00     0.00     -11.97 -999.99  -11.97    0.00000     0.00  LINEAR    2.40058E-01   173.98    0.00000E+00     0.00
 -110.00     0.00     -15.37 -999.99  -15.37    0.00000     0.00  LINEAR    1.62308E-01   170.97    0.00000E+00     0.00
 -105.00     0.00     -20.05 -999.99  -20.05    0.00000     0.00  LINEAR    9.46789E-02   168.60    0.00000E+00     0.00
 -100.00     0.00     -27.04 -999.99  -27.04    0.00000     0.00  LINEAR    4.23574E-02   166.89    0.00000E+00     0.00
  -95.00     0.00     -40.20 -999.99  -40.20    0.00000     0.00  LINEAR    9.30623E-03   165.86    0.00000E+00     0.00
  -90.00     0.00     -53.59 -999.99  -53.59    0.00000     0.00  LINEAR    1.99244E-03   -14.48    0.00000E+00     0.00
  -85.00     0.00     -40.20 -999.99  -40.20    0.00000     0.00  LINEAR    9.30623E-03   165.86    0.00000E+00     0.00
  -80.00     0.00     -27.04 -999.99  -27.04    0.00000     0.00  LINEAR    4.23574E-02   166.89    0.00000E+00     0.00
  -75.00     0.00     -20.05 -999.99  -20.05    0.00000     0.00  LINEAR    9.46789E-02   168.60    0.00000E+00     0.00
  -70.00     0.00     -15.37 -999.99  -15.37    0.00000     0.00  LINEAR    1.62308E-01   170.97    0.00000E+00     0.00
  -65.00     0.00     -11.97 -999.99  -11.97    0.00000     0.00  LINEAR    2.40058E-01   173.98    0.00000E+00     0.00
  -60.00     0.00      -9.42 -999.99   -9.42    0.00000     0.00  LINEAR    3.21863E-01   177.62    0.00000E+00     0.00
  -55.00     0.00      -7.51 -999.99   -7.51    0.00000     0.00  LINEAR    4.01196E-01  -178.14    0.00000E+00     0.00
  -50.00     0.00      -6.11 -999.99   -6.11    0.00000     0.00  LINEAR    4.71531E-01  -173.35    0.00000E+00     0.00
  -45.00     0.00      -5.14 -999.99   -5.14    0.00000     0.00  LINEAR    5.26821E-01  -168.02    0.00000E+00     0.00
  -40.00     0.00      -4.58 -999.99   -4.58    0.00000     0.00  LINEAR    5.61936E-01  -162.21    0.00000E+00     0.00
  -35.00     0.00      -4.41 -999.99   -4.41    0.00000     0.00  LINEAR    5.73047E-01  -155.96    0.00000E+00     0.00
  -30.00     0.00      -4.64 -999.99   -4.64    0.00000     0.00  LINEAR    5.57897E-01  -149.32    0.00000E+00     0.00
  -25.00     0.00      -5.32 -999.99   -5.32    0.00000     0.00  LINEAR    5.15959E-01  -142.34    0.00000E+00     0.00
  -20.00     0.00      -6.54 -999.99   -6.54    0.00000     0.00  LINEAR    4.48454E-01  -135.07    0.00000E+00     0.00
  -15.00     0.00      -8.49 -999.99   -8.49    0.00000     0.00  LINEAR    3.58254E-01  -127.57    0.00000E+00     0.00
  -10.00     0.00     -11.63 -999.99  -11.63    0.00000     0.00  LINEAR    2.49671E-01  -119.89    0.00000E+00     0.00
   -5.00     0.00     -17.42 -999.99  -17.42    0.00000     0.00  LINEAR    1.28168E-01  -112.09    0.00000E+00     0.00
    0.00     0.00    -999.99 -999.99 -999.99    0.00000     0.00            0.00000E+00     0.00    0.00000E+00     0.00
 -180.00     5.00    -999.99 -999.99 -999.99    0.00000     0.00            1.51222E-11    75.76    0.00000E+00     0.00
 -175.00     5.00     -17.42 -999.99  -17.42    0.00000     0.00  LINEAR    1.28177E-01  -112.06    0.00000E+00     0.00
 -170.00     5.00     -11.63 -999.99  -11.63    0.00000     0.00  LINEAR    2.49744E-01  -119.83    0.00000E+00     0.00
 -165.00     5.00      -8.49 -999.99   -8.49    0.00000     0.00  LINEAR    3.58492E-01  -127.48    0.00000E+00     0.00
 -160.00     5.00      -6.53 -999.99   -6.53    0.00000     0.00  LINEAR    4.49000E-01  -134.95    0.00000E+00     0.00
 -155.00     5.00      -5.31 -999.99   -5.31    0.00000     0.00  LINEAR    5.16979E-01  -142.20    0.00000E+00     0.00
 -150.00     5.00      -4.62 -999.99   -4.62    0.00000     0.00  LINEAR    5.59565E-01  -149.15    0.00000E+00     0.00
 -145.00     5.00      -4.37 -999.99   -4.37    0.00000     0.00  LINEAR    5.75529E-01  -155.77    0.00000E+00     0.00
 -140.00     5.00      -4.53 -999.99   -4.53    0.00000     0.00  LINEAR    5.65375E-01  -161.99    0.00000E+00     0.00
 -135.00     5.00      -5.07 -999.99   -5.07    0.00000     0.00  LINEAR    5.31321E-01  -167.78    0.00000E+00     0.00
 -130.00     5.00      -6.00 -999.99   -6.00    0.00000     0.00  LINEAR    4.77152E-01  -173.08    0.00000E+00     0.00
 -125.00     5.00      -7.36 -999.99   -7.36    0.00000     0.00  LINEAR    4.07945E-01  -177.86    0.00000E+00     0.00
 -120.00     5.00      -9.21 -999.99   -9.21    0.00000     0.00  LINEAR    3.29699E-01   177.92    0.00000E+00     0.00
 -115.00     5.00     -11.66 -999.99  -11.66    0.00000     0.00  LINEAR    2.48891E-01   174.29    0.00000E+00     0.00
 -110.00     5.00     -14.86 -999.99  -14.86    0.00000     0.00  LINEAR    1.72009E-01   171.29    0.00000E+00     0.00
 -105.00     5.00     -19.14 -999.99  -19.14    0.00000     0.00  LINEAR    1.05085E-01   168.93    0.00000E+00     0.00
 -100.00     5.00     -25.04 -999.99  -25.04    0.00000     0.00  LINEAR    5.32835E-02   167.23    0.00000E+00     0.00
  -95.00     5.00     -33.32 -999.99  -33.32    0.00000     0.00  LINEAR    2.05504E-02   166.20    0.00000E+00     0.00
  -90.00     5.00     -40.15 -999.99  -40.15    0.00000     0.00  LINEAR    9.35877E-03   165.86    0.00000E+00     0.00
  -85.00     5.00     -33.32 -999.99  -33.32    0.00000     0.00  LINEAR    2.05504E-02   166.20    0.00000E+00     0.00
  -80.00     5.00     -25.04 -999.99  -25.04    0.00000     0.00  LINEAR    5.32835E-02   167.23    0.00000E+00     0.00
  -75.00     5.00     -19.14 -999.99  -19.14    0.00000     0.00  LINEAR    1.05085E-01   168.93    0.00000E+00     0.00
  -70.00     5.00     -14.86 -999.99  -14.86    0.00000     0.00  LINEAR    1.72009E-01   171.29    0.00000E+00     0.00
  -65.00     5.00     -11.66 -999.99  -11.66    0.00000     0.00  LINEAR    2.48891E-01   174.29    0.00000E+00     0.00
  -60.00     5.00      -9.21 -999.99   -9.21    0.00000     0.00  LINEAR    3.29699E-01   177.92    0.00000E+00     0.00
  -55.00     5.00      -7.36 -999.99   -7.36    0.00000     0.00  LINEAR    4.07945E-01  -177.86    0.00000E+00     0.00
  -50.00     5.00      -6.00 -999.99   -6.00    0.00000     0.00  LINEAR    4.77152E-01  -173.08    0.00000E+00     0.00
  -45.00     5.00      -5.07 -999.99   -5.07    0.00000     0.00  LINEAR    5.31321E-01  -167.78    0.00000E+00     0.00
  -40.00     5.00      -4.53 -999.99   -4.53    0.00000     0.00  LINEAR    5.65375E-01  -161.99    0.00000E+00     0.00
  -35.00     5.00      -4.37 -999.99   -4.37    0.00000     0.00  LINEAR    5.75529E-01  -155.77    0.00000E+00     0.00
  -30.00     5.00      -4.62 -999.99   -4.62    0.00000     0.00  LINEAR    5.59565E-01  -149.15    0.00000E+00     0.00
  -25.00     5.00      -5.31 -999.99   -5.31    0.00000     0.00  LINEAR    5.16979E-01  -142.20    0.00000E+00     0.00
  -20.00     5.00      -6.53 -999.99   -6.53    0.00000     0.00  LINEAR    4.49000E-01  -134.95    0.00000E+00     0.00
  -15.00     5.00      -8.49 -999.99   -8.49    0.00000     0.00  LINEAR    3.58492E-01  -127.48    0.00000E+00     0.00
  -10.00     5.00     -11.63 -999.99  -11.63    0.00000     0.00  LINEAR    2.49744E-01  -119.83    0.00000E+00     0.00
   -5.00     5.00     -17.42 -999.99  -17.42    0.00000     0.00  LINEAR    1.28177E-01  -112.06    0.00000E+00     0.00
    0.00     5.00    -999.99 -999.99 -999.99    0.00000     0.00            0.00000E+00     0.00    0.00000E+00     0.00
 -180.00    10.00    -999.99 -999.99 -999.99    0.00000     0.00            1.51222E-11    75.76    0.00000E+00     0.00
 -175.00    10.00     -17.42 -999.99  -17.42    0.00000     0.00  LINEAR    1.28204E-01  -111.97    0.00000E+00     0.00
 -170.00    10.00     -11.62 -999.99  -11.62    0.00000     0.00  LINEAR    2.49959E-01  -119.65    0.00000E+00     0.00
 -165.00    10.00      -8.47 -999.99   -8.47    0.00000     0.00  LINEAR    3.59201E-01  -127.21    0.00000E+00     0.00
 -160.00    10.00      -6.50 -999.99   -6.50    0.00000     0.00  LINEAR    4.50623E-01  -134.60    0.00000E+00     0.00
 -155.00    10.00      -5.26 -999.99   -5.26    0.00000     0.00  LINEAR    5.20010E-01  -141.76    0.00000E+00     0.00
 -150.00    10.00      -4.54 -999.99   -4.54    0.00000     0.00  LINEAR    5.64526E-01  -148.64    0.00000E+00     0.00
 -145.00    10.00      -4.26 -999.99   -4.26    0.00000     0.00  LINEAR    5.82916E-01  -155.18    0.00000E+00     0.00
 -140.00    10.00      -4.37 -999.99   -4.37    0.00000     0.00  LINEAR    5.75614E-01  -161.33    0.00000E+00     0.00
 -135.00    10.00      -4.85 -999.99   -4.85    0.00000     0.00  LINEAR    5.44730E-01  -167.05    0.00000E+00     0.00
 -130.00    10.00      -5.70 -999.99   -5.70    0.00000     0.00  LINEAR    4.93911E-01  -172.30    0.00000E+00     0.00
 -125.00    10.00      -6.95 -999.99   -6.95    0.00000     0.00  LINEAR    4.28083E-01  -177.02    0.00000E+00     0.00
 -120.00    10.00      -8.62 -999.99   -8.62    0.00000     0.00  LINEAR    3.53093E-01   178.81    0.00000E+00     0.00
 -115.00    10.00     -10.78 -999.99  -10.78    0.00000     0.00  LINEAR    2.75278E-01   175.22    0.00000E+00     0.00
 -110.00    10.00     -13.51 -999.99  -13.51    0.00000     0.00  LINEAR    2.01002E-01   172.25    0.00000E+00     0.00
 -105.00    10.00     -16.89 -999.99  -16.89    0.00000     0.00  LINEAR    1.36202E-01   169.92    0.00000E+00     0.00
 -100.00    10.00     -20.89 -999.99  -20.89    0.00000     0.00  LINEAR    8.59662E-02   168.24    0.00000E+00     0.00
  -95.00    10.00     -24.90 -999.99  -24.90    0.00000     0.00  LINEAR    5.41915E-02   167.22    0.00000E+00     0.00
  -90.00    10.00     -26.84 -999.99  -26.84    0.00000     0.00  LINEAR    4.33224E-02   166.88    0.00000E+00     0.00
  -85.00    10.00     -24.90 -999.99  -24.90    0.00000     0.00  LINEAR    5.41915E-02   167.22    0.00000E+00     0.00
  -80.00    10.00     -20.89 -999.99  -20.89    0.00000     0.00  LINEAR    8.59662E-02   168.24    0.00000E+00     0.00
  -75.00    10.00     -16.89 -999.99  -16.89    0.00000     0.00  LINEAR    1.36202E-01   169.92    0.00000E+00     0.00
  -70.00    10.00     -13.51 -999.99  -13.51    0.00000     0.00  LINEAR    2.01002E-01   172.25    0.00000E+00     0.00
  -65.00    10.00     -10.78 -999.99  -10.78    0.00000     0.00  LINEAR    2.75278E-01   175.22    0.00000E+00     0.00
  -60.00    10.00      -8.62 -999.99   -8.62    0.00000     0.00  LINEAR    3.53093E-01   178.81    0.00000E+00     0.00
  -55.00    10.00      -6.95 -999.99   -6.95    0.00000     0.00  LINEAR    4.28083E-01  -177.02    0.00000E+00     0.00
  -50.00    10.00      -5.70 -999.99   -5.70    0.00000     0.00  LINEAR    4.93911E-01  -172.30    0.00000E+00     0.00
  -45.00    10.00      -4.85 -999.99   -4.85    0.00000     0.00  LINEAR    5.44730E-01  -167.05    0.00000E+00     0.00
  -40.00    10.00      -4.37 -999.99   -4.37    0.00000     0.00  LINEAR    5.75614E-01  -161.33    0.00000E+00     0.00
  -35.00    10.00      -4.26 -999.99   -4.26    0.00000     0.00  LINEAR    5.82916E-01  -155.18    0.00000E+00     0.00
  -30.00    10.00      -4.54 -999.99   -4.54    0.00000     0.00  LINEAR    5.64526E-01  -148.64    0.00000E+00     0.00
  -25.00    10.00      -5.26 -999.99   -5.26    0.00000     0.00  LINEAR    5.20010E-01  -141.76    0.00000E+00     0.00
  -20.00    10.00      -6.50 -999.99   -6.50    0.00000     0.00  LINEAR    4.50623E-01  -134.60    0.00000E+00     0.00
  -15.00    10.00      -8.47 -999.99   -8.47    0.00000     0.00  LINEAR    3.59201E-01  -127.21    0.00000E+00     0.00
  -10.00    10.00     -11.62 -999.99  -11.62    0.00000     0.00  LINEAR    2.49959E-01  -119.65    0.00000E+00     0.00
   -5.00    10.00     -17.42 -999.99  -17.42    0.00000     0.00  LINEAR    1.28204E-01  -111.97    0.00000E+00     0.00
    0.00    10.00    -999.99 -999.99 -999.99    0.00000     0.00            0.00000E+00     0.00    0.00000E+00     0.00
 -180.00    15.00    -999.99 -999.99 -999.99    0.00000     0.00            1.51222E-11    75.76    0.00000E+00     0.00
 -175.00    15.00     -17.41 -999.99  -17.41    0.00000     0.00  LINEAR    1.28249E-01  -111.83    0.00000E+00     0.00
 -170.00    15.00     -11.61 -999.99  -11.61    0.00000     0.00  LINEAR    2.50311E-01  -119.36    0.00000E+00     0.00
 -165.00    15.00      -8.44 -999.99   -8.44    0.00000     0.00  LINEAR    3.60359E-01  -126.77    0.00000E+00     0.00
 -160.00    15.00      -6.45 -999.99   -6.45    0.00000     0.00  LINEAR    4.53276E-01  -134.02    0.00000E+00     0.00
 -155.00    15.00      -5.17 -999.99   -5.17    0.00000     0.00  LINEAR    5.24971E-01  -141.04    0.00000E+00     0.00
 -150.00    15.00      -4.42 -999.99   -4.42    0.00000     0.00  LINEAR    5.72651E-01  -147.79    0.00000E+00     0.00
 -145.00    15.00      -4.09 -999.99   -4.09    0.00000     0.00  LINEAR    5.95029E-01  -154.20    0.00000E+00     0.00
 -140.00    15.00      -4.12 -999.99   -4.12    0.00000     0.00  LINEAR    5.92424E-01  -160.24    0.00000E+00     0.00
 -135.00    15.00      -4.51 -999.99   -4.51    0.00000     0.00  LINEAR    5.66771E-01  -165.85    0.00000E+00     0.00
 -130.00    15.00      -5.23 -999.99   -5.23    0.00000     0.00  LINEAR    5.21494E-01  -170.99    0.00000E+00     0.00
 -125.00    15.00      -6.30 -999.99   -6.30    0.00000     0.00  LINEAR    4.61270E-01  -175.63    0.00000E+00     0.00
 -120.00    15.00      -7.72 -999.99   -7.72    0.00000     0.00  LINEAR    3.91695E-01  -179.72    0.00000E+00     0.00
 -115.00    15.00      -9.50 -999.99   -9.50    0.00000     0.00  LINEAR    3.18869E-01   176.76    0.00000E+00     0.00
 -110.00    15.00     -11.65 -999.99  -11.65    0.00000     0.00  LINEAR    2.48951E-01   173.85    0.00000E+00     0.00
 -105.00    15.00     -14.11 -999.99  -14.11    0.00000     0.00  LINEAR    1.87706E-01   171.56    0.00000E+00     0.00
 -100.00    15.00     -16.65 -999.99  -16.65    0.00000     0.00  LINEAR    1.40097E-01   169.91    0.00000E+00     0.00
  -95.00    15.00     -18.75 -999.99  -18.75    0.00000     0.00  LINEAR    1.09932E-01   168.92    0.00000E+00     0.00
  -90.00    15.00     -19.61 -999.99  -19.61    0.00000     0.00  LINEAR    9.96053E-02   168.58    0.00000E+00     0.00
  -85.00    15.00     -18.75 -999.99  -18.75    0.00000     0.00  LINEAR    1.09932E-01   168.92    0.00000E+00     0.00
  -80.00    15.00     -16.65 -999.99  -16.65    0.00000     0.00  LINEAR    1.40097E-01   169.91    0.00000E+00     0.00
  -75.00    15.00     -14.11 -999.99  -14.11    0.00000     0.00  LINEAR    1.87706E-01   171.56    0.00000E+00     0.00
  -70.00    15.00     -11.65 -999.99  -11.65    0.00000     0.00  LINEAR    2.48951E-01   173.85    0.00000E+00     0.00
  -65.00    15.00      -9.50 -999.99   -9.50    0.00000     0.00  LINEAR    3.18869E-01   176.76    0.00000E+00     0.00
  -60.00    15.00      -7.72 -999.99   -7.72    0.00000     0.00  LINEAR    3.91695E-01  -179.72    0.00000E+00     0.00
  -55.00    15.00      -6.30 -999.99   -6.30    0.00000     0.00  LINEAR    4.61270E-01  -175.63    0.00000E+00     0.00
  -50.00    15.00      -5.23 -999.99   -5.23    0.00000     0.00  LINEAR    5.21494E-01  -170.99    0.00000E+00     0.00
  -45.00    15.00      -4.51 -999.99   -4.51    0.00000     0.00  LINEAR    5.66771E-01  -165.85    0.00000E+00     0.00
  -40.00    15.00      -4.12 -999.99   -4.12    0.00000     0.00  LINEAR    5.92424E-01  -160.24    0.00000E+00     0.00
  -35.00    15.00      -4.09 -999.99   -4.09    0.00000     0.00  LINEAR    5.95029E-01  -154.20    0.00000E+00     0.00
  -30.00    15.00      -4.42 -999.99   -4.42    0.00000     0.00  LINEAR    5.72651E-01  -147.79    0.00000E+00     0.00
  -25.00    15.00      -5.17 -999.99   -5.17    0.00000     0.00  LINEAR    5.24971E-01  -141.04    0.00000E+00     0.00
  -20.00    15.00      -6.45 -999.99   -6.45    0.00000     0.00  LINEAR    4.53276E-01  -134.02    0.00000E+00     0.00
  -15.00    15.00      -8.44 -999.99   -8.44    0.00000     0.00  LINEAR    3.60359E-01  -126.77    0.00000E+00     0.00
  -10.00    15.00     -11.61 -999.99  -11.61    0.00000     0.00  LINEAR    2.50311E-01  -119.36    0.00000E+00     0.00
   -5.00    15.00     -17.41 -999.99  -17.41    0.00000     0.00  LINEAR    1.28249E-01  -111.83    0.00000E+00     0.00
    0.00    15.00    -999.99 -999.99 -999.99    0.00000     0.00            0.00000E+00     0.00    0.00000E+00     0.00
 -180.00    20.00    -999.99 -999.99 -999.99    0.00000     0.00            1.51222E-11    75.76    0.00000E+00     0.00
 -175.00    20.00     -17.41 -999.99  -17.41    0.00000     0.00  LINEAR    1.28309E-01  -111.62    0.00000E+00     0.00
 -170.00    20.00     -11.59 -999.99  -11.59    0.00000     0.00  LINEAR    2.50788E-01  -118.94    0.00000E+00     0.00
 -165.00    20.00      -8.40 -999.99   -8.40    0.00000     0.00  LINEAR    3.61933E-01  -126.16    0.00000E+00     0.00
 -160.00    20.00      -6.38 -999.99   -6.38    0.00000     0.00  LINEAR    4.56885E-01  -133.21    0.00000E+00     0.00
 -155.00    20.00      -5.06 -999.99   -5.06    0.00000     0.00  LINEAR    5.31726E-01  -140.04    0.00000E+00     0.00
 -150.00    20.00      -4.25 -999.99   -4.25    0.00000     0.00  LINEAR    5.83731E-01  -146.61    0.00000E+00     0.00
 -145.00    20.00      -3.85 -999.99   -3.85    0.00000     0.00  LINEAR    6.11571E-01  -152.85    0.00000E+00     0.00
 -140.00    20.00      -3.79 -999.99   -3.79    0.00000     0.00  LINEAR    6.15421E-01  -158.72    0.00000E+00     0.00
 -135.00    20.00      -4.06 -999.99   -4.06    0.00000     0.00  LINEAR    5.96978E-01  -164.18    0.00000E+00     0.00
 -130.00    20.00      -4.62 -999.99   -4.62    0.00000     0.00  LINEAR    5.59365E-01  -169.18    0.00000E+00     0.00
 -125.00    20.00      -5.48 -999.99   -5.48    0.00000     0.00  LINEAR    5.06921E-01  -173.69    0.00000E+00     0.00
 -120.00    20.00      -6.61 -999.99   -6.61    0.00000     0.00  LINEAR    4.44890E-01  -177.67    0.00000E+00     0.00
 -115.00    20.00      -8.00 -999.99   -8.00    0.00000     0.00  LINEAR    3.79042E-01   178.90    0.00000E+00     0.00
 -110.00    20.00      -9.60 -999.99   -9.60    0.00000     0.00  LINEAR    3.15237E-01   176.07    0.00000E+00     0.00
 -105.00    20.00     -11.31 -999.99  -11.31    0.00000     0.00  LINEAR    2.58997E-01   173.84    0.00000E+00     0.00
 -100.00    20.00     -12.92 -999.99  -12.92    0.00000     0.00  LINEAR    2.15094E-01   172.24    0.00000E+00     0.00
  -95.00    20.00     -14.13 -999.99  -14.13    0.00000     0.00  LINEAR    1.87205E-01   171.27    0.00000E+00     0.00
  -90.00    20.00     -14.58 -999.99  -14.58    0.00000     0.00  LINEAR    1.77645E-01   170.95    0.00000E+00     0.00
  -85.00    20.00     -14.13 -999.99  -14.13    0.00000     0.00  LINEAR    1.87205E-01   171.27    0.00000E+00     0.00
  -80.00    20.00     -12.92 -999.99  -12.92    0.00000     0.00  LINEAR    2.15094E-01   172.24    0.00000E+00     0.00
  -75.00    20.00     -11.31 -999.99  -11.31    0.00000     0.00  LINEAR    2.58997E-01   173.84    0.00000E+00     0.00
  -70.00    20.00      -9.60 -999.99   -9.60    0.00000     0.00  LINEAR    3.15237E-01   176.07    0.00000E+00     0.00
  -65.00    20.00      -8.00 -999.99   -8.00    0.00000     0.00  LINEAR    3.79042E-01   178.90    0.00000E+00     0.00
  -60.00    20.00      -6.61 -999.99   -6.61    0.00000     0.00  LINEAR    4.44890E-01  -177.67    0.00000E+00     0.00
  -55.00    20.00      -5.48 -999.99   -5.48    0.00000     0.00  LINEAR    5.06921E-01  -173.69    0.00000E+00     0.00
  -50.00    20.00      -4.62 -999.99   -4.62    0.00000     0.00  LINEAR    5.59365E-01  -169.18    0.00000E+00     0.00
  -45.00    20.00      -4.06 -999.99   -4.06    0.00000     0.00  LINEAR    5.96978E-01  -164.18    0.00000E+00     0.00
  -40.00    20.00      -3.79 -999.99   -3.79    0.00000     0.00  LINEAR    6.15421E-01  -158.72    0.00000E+00     0.00
  -35.00    20.00      -3.85 -999.99   -3.85    0.00000     0.00  LINEAR    6.11571E-01  -152.85    0.00000E+00     0.00
  -30.00    20.00      -4.25 -999.99   -4.25    0.00000     0.00  LINEAR    5.83731E-01  -146.61    0.00000E+00     0.00
  -25.00    20.00      -5.06 -999.99   -5.06    0.00000     0.00  LINEAR    5.31726E-01  -140.04    0.00000E+00     0.00
  -20.00    20.00      -6.38 -999.99   -6.38    0.00000     0.00  LINEAR    4.56885E-01  -133.21    0.00000E+00     0.00
  -15.00    20.00      -8.40 -999.99   -8.40    0.00000     0.00  LINEAR    3.61933E-01  -126.16    0.00000E+00     0.00
  -10.00    20.00     -11.59 -999.99  -11.59    0.00000     0.00  LINEAR    2.50788E-01  -118.94    0.00000E+00     0.00
   -5.00    20.00     -17.41 -999.99  -17.41    0.00000     0.00  LINEAR    1.28309E-01  -111.62    0.00000E+00     0.00
    0.00    20.00    -999.99 -999.99 -999.99    0.00000     0.00            0.00000E+00     0.00    0.00000E+00     0.00
 -180.00    25.00    -999.99 -999.99 -999.99    0.00000     0.00            1.51222E-11    75.76    0.00000E+00     0.00
 -175.00    25.00     -17.41 -999.99  -17.41    0.00000     0.00  LINEAR    1.28384E-01  -111.36    0.00000E+00     0.00
 -170.00    25.00     -11.57 -999.99  -11.57    0.00000     0.00  LINEAR    2.51377E-01  -118.42    0.00000E+00     0.00
 -165.00    25.00      -8.36 -999.99   -8.36    0.00000     0.00  LINEAR    3.63876E-01  -125.38    0.00000E+00     0.00
 -160.00    25.00      -6.30 -999.99   -6.30    0.00000     0.00  LINEAR    4.61346E-01  -132.18    0.00000E+00     0.00
 -155.00    25.00      -4.93 -999.99   -4.93    0.00000     0.00  LINEAR    5.40088E-01  -138.77    0.00000E+00     0.00
 -150.00    25.00      -4.05 -999.99   -4.05    0.00000     0.00  LINEAR    5.97472E-01  -145.10    0.00000E+00     0.00
 -145.00    25.00      -3.56 -999.99   -3.56    0.00000     0.00  LINEAR    6.32127E-01  -151.12    0.00000E+00     0.00
 -140.00    25.00      -3.40 -999.99   -3.40    0.00000     0.00  LINEAR    6.44059E-01  -156.79    0.00000E+00     0.00
 -135.00    25.00      -3.52 -999.99   -3.52    0.00000     0.00  LINEAR    6.34682E-01  -162.06    0.00000E+00     0.00
 -130.00    25.00      -3.92 -999.99   -3.92    0.00000     0.00  LINEAR    6.06749E-01  -166.88    0.00000E+00     0.00
 -125.00    25.00      -4.55 -999.99   -4.55    0.00000     0.00  LINEAR    5.64174E-01  -171.23    0.00000E+00     0.00
 -120.00    25.00      -5.39 -999.99   -5.39    0.00000     0.00  LINEAR    5.11759E-01  -175.07    0.00000E+00     0.00
 -115.00    25.00      -6.42 -999.99   -6.42    0.00000     0.00  LINEAR    4.54843E-01  -178.37    0.00000E+00     0.00
 -110.00    25.00      -7.56 -999.99   -7.56    0.00000     0.00  LINEAR    3.98898E-01   178.89    0.00000E+00     0.00
 -105.00    25.00      -8.72 -999.99   -8.72    0.00000     0.00  LINEAR    3.49115E-01   176.75    0.00000E+00     0.00
 -100.00    25.00      -9.75 -999.99   -9.75    0.00000     0.00  LINEAR    3.10008E-01   175.20    0.00000E+00     0.00
  -95.00    25.00     -10.48 -999.99  -10.48    0.00000     0.00  LINEAR    2.85069E-01   174.27    0.00000E+00     0.00
  -90.00    25.00     -10.74 -999.99  -10.74    0.00000     0.00  LINEAR    2.76505E-01   173.95    0.00000E+00     0.00
  -85.00    25.00     -10.48 -999.99  -10.48    0.00000     0.00  LINEAR    2.85069E-01   174.27    0.00000E+00     0.00
  -80.00    25.00      -9.75 -999.99   -9.75    0.00000     0.00  LINEAR    3.10008E-01   175.20    0.00000E+00     0.00
  -75.00    25.00      -8.72 -999.99   -8.72    0.00000     0.00  LINEAR    3.49115E-01   176.75    0.00000E+00     0.00
  -70.00    25.00      -7.56 -999.99   -7.56    0.00000     0.00  LINEAR    3.98898E-01   178.89    0.00000E+00     0.00
  -65.00    25.00      -6.42 -999.99   -6.42    0.00000     0.00  LINEAR    4.54843E-01  -178.37    0.00000E+00     0.00
  -60.00    25.00      -5.39 -999.99   -5.39    0.00000     0.00  LINEAR    5.11759E-01  -175.07    0.00000E+00     0.00
  -55.00    25.00      -4.55 -999.99   -4.55    0.00000     0.00  LINEAR    5.64174E-01  -171.23    0.00000E+00     0.00
  -50.00    25.00      -3.92 -999.99   -3.92    0.00000     0.00  LINEAR    6.06749E-01  -166.88    0.00000E+00     0.00
  -45.00    25.00      -3.52 -999.99   -3.52    0.00000     0.00  LINEAR    6.34682E-01  -162.06    0.00000E+00     0.00
  -40.00    25.00      -3.40 -999.99   -3.40    0.00000     0.00  LINEAR    6.44059E-01  -156.79    0.00000E+00     0.00
  -35.00    25.00      -3.56 -999.99   -3.56    0.00000     0.00  LINEAR    6.32127E-01  -151.12    0.00000E+00     0.00
  -30.00    25.00      -4.05 -999.99   -4.05    0.00000     0.00  LINEAR    5.97472E-01  -145.10    0.00000E+00     0.00
  -25.00    25.00      -4.93 -999.99   -4.93    0.00000     0.00  LINEAR    5.40088E-01  -138.77    0.00000E+00     0.00
  -20.00    25.00      -6.30 -999.99   -6.30    0.00000     0.00  LINEAR    4.61346E-01  -132.18    0.00000E+00     0.00
  -15.00    25.00      -8.36 -999.99   -8.36    0.00000     0.00  LINEAR    3.63876E-01  -125.38    0.00000E+00     0.00
  -10.00    25.00     -11.57 -999.99  -11.57    0.00000     0.00  LINEAR    2.51377E-01  -118.42    0.00000E+00     0.00
   -5.00    25.00     -17.41 -999.99  -17.41    0.00000     0.00  LINEAR    1.28384E-01  -111.36    0.00000E+00     0.00
    0.00    25.00    -999.99 -999.99 -999.99    0.00000     0.00            0.00000E+00     0.00    0.00000E+00     0.00
 -180.00    30.00    -999.99 -999.99 -999.99    0.00000     0.00            1.51222E-11    75.76    0.00000E+00     0.00
 -175.00    30.00     -17.40 -999.99  -17.40    0.00000     0.00  LINEAR    1.28470E-01  -111.04    0.00000E+00     0.00
 -170.00    30.00     -11.55 -999.99  -11.55    0.00000     0.00  LINEAR    2.52060E-01  -117.79    0.00000E+00     0.00
 -165.00    30.00      -8.30 -999.99   -8.30    0.00000     0.00  LINEAR    3.66131E-01  -124.44    0.00000E+00     0.00
 -160.00    30.00      -6.20 -999.99   -6.20    0.00000     0.00  LINEAR    4.66531E-01  -130.94    0.00000E+00     0.00
 -155.00    30.00      -4.77 -999.99   -4.77    0.00000     0.00  LINEAR    5.49825E-01  -137.24    0.00000E+00     0.00
 -150.00    30.00      -3.82 -999.99   -3.82    0.00000     0.00  LINEAR    6.13504E-01  -143.29    0.00000E+00     0.00
 -145.00    30.00      -3.24 -999.99   -3.24    0.00000     0.00  LINEAR    6.56166E-01  -149.04    0.00000E+00     0.00
 -140.00    30.00      -2.96 -999.99   -2.96    0.00000     0.00  LINEAR    6.77635E-01  -154.46    0.00000E+00     0.00
 -135.00    30.00      -2.94 -999.99   -2.94    0.00000     0.00  LINEAR    6.79008E-01  -159.49    0.00000E+00     0.00
 -130.00    30.00      -3.15 -999.99   -3.15    0.00000     0.00  LINEAR    6.62611E-01  -164.10    0.00000E+00     0.00
 -125.00    30.00      -3.56 -999.99   -3.56    0.00000     0.00  LINEAR    6.31859E-01  -168.26    0.00000E+00     0.00
 -120.00    30.00      -4.14 -999.99   -4.14    0.00000     0.00  LINEAR    5.91024E-01  -171.93    0.00000E+00     0.00
 -115.00    30.00      -4.85 -999.99   -4.85    0.00000     0.00  LINEAR    5.44920E-01  -175.08    0.00000E+00     0.00
 -110.00    30.00      -5.62 -999.99   -5.62    0.00000     0.00  LINEAR    4.98533E-01  -177.70    0.00000E+00     0.00
 -105.00    30.00      -6.38 -999.99   -6.38    0.00000     0.00  LINEAR    4.56636E-01  -179.75    0.00000E+00     0.00
 -100.00    30.00      -7.04 -999.99   -7.04    0.00000     0.00  LINEAR    4.23406E-01   178.77    0.00000E+00     0.00
  -95.00    30.00      -7.49 -999.99   -7.49    0.00000     0.00  LINEAR    4.02092E-01   177.88    0.00000E+00     0.00
  -90.00    30.00      -7.65 -999.99   -7.65    0.00000     0.00  LINEAR    3.94751E-01   177.58    0.00000E+00     0.00
  -85.00    30.00      -7.49 -999.99   -7.49    0.00000     0.00  LINEAR    4.02092E-01   177.88    0.00000E+00     0.00
  -80.00    30.00      -7.04 -999.99   -7.04    0.00000     0.00  LINEAR    4.23406E-01   178.77    0.00000E+00     0.00
  -75.00    30.00      -6.38 -999.99   -6.38    0.00000     0.00  LINEAR    4.56636E-01  -179.75    0.00000E+00     0.00
  -70.00    30.00      -5.62 -999.99   -5.62    0.00000     0.00  LINEAR    4.98533E-01  -177.70    0.00000E+00     0.00
  -65.00    30.00      -4.85 -999.99   -4.85    0.00000     0.00  LINEAR    5.44920E-01  -175.08    0.00000E+00     0.00
  -60.00    30.00      -4.14 -999.99   -4.14    0.00000     0.00  LINEAR    5.91024E-01  -171.93    0.00000E+00     0.00
  -55.00    30.00      -3.56 -999.99   -3.56    0.00000     0.00  LINEAR    6.31859E-01  -168.26    0.00000E+00     0.00
  -50.00    30.00      -3.15 -999.99   -3.15    0.00000     0.00  LINEAR    6.62611E-01  -164.10    0.00000E+00     0.00
  -45.00    30.00      -2.94 -999.99   -2.94    0.00000     0.00  LINEAR    6.79008E-01  -159.49    0.00000E+00     0.00
  -40.00    30.00      -2.96 -999.99   -2.96    0.00000     0.00  LINEAR    6.77635E-01  -154.46    0.00000E+00     0.00
  -35.00    30.00      -3.24 -999.99   -3.24    0.00000     0.00  LINEAR    6.56166E-01  -149.04    0.00000E+00     0.00
  -30.00    30.00      -3.82 -999.99   -3.82    0.00000     0.00  LINEAR    6.13504E-01  -143.29    0.00000E+00     0.00
  -25.00    30.00      -4.77 -999.99   -4.77    0.00000     0.00  LINEAR    5.49825E-01  -137.24    0.00000E+00     0.00
  -20.00    30.00      -6.20 -999.99   -6.20    0.00000     0.00  LINEAR    4.66531E-01  -130.94    0.00000E+00     0.00
  -15.00    30.00      -8.30 -999.99   -8.30    0.00000     0.00  LINEAR    3.66131E-01  -124.44    0.00000E+00     0.00
  -10.00    30.00     -11.55 -999.99  -11.55    0.00000     0.00  LINEAR    2.52060E-01  -117.79    0.00000E+00     0.00
   -5.00    30.00     -17.40 -999.99  -17.40    0.00000     0.00  LINEAR    1.28470E-01  -111.04    0.00000E+00     0.00
    0.00    30.00    -999.99 -999.99 -999.99    0.00000     0.00            0.00000E+00     0.00    0.00000E+00     0.00
 -180.00    35.00    -999.99 -999.99 -999.99    0.00000     0.00            1.51222E-11    75.76    0.00000E+00     0.00
 -175.00    35.00     -17.39 -999.99  -17.39    0.00000     0.00  LINEAR    1.28566E-01  -110.67    0.00000E+00     0.00
 -170.00    35.00     -11.52 -999.99  -11.52    0.00000     0.00  LINEAR    2.52816E-01  -117.06    0.00000E+00     0.00
 -165.00    35.00      -8.24 -999.99   -8.24    0.00000     0.00  LINEAR    3.68631E-01  -123.35    0.00000E+00     0.00
 -160.00    35.00      -6.09 -999.99   -6.09    0.00000     0.00  LINEAR    4.72289E-01  -129.50    0.00000E+00     0.00
 -155.00    35.00      -4.60 -999.99   -4.60    0.00000     0.00  LINEAR    5.60658E-01  -135.46    0.00000E+00     0.00
 -150.00    35.00      -3.57 -999.99   -3.57    0.00000     0.00  LINEAR    6.31383E-01  -141.18    0.00000E+00     0.00
 -145.00    35.00      -2.89 -999.99   -2.89    0.00000     0.00  LINEAR    6.83047E-01  -146.62    0.00000E+00     0.00
 -140.00    35.00      -2.49 -999.99   -2.49    0.00000     0.00  LINEAR    7.15289E-01  -151.74    0.00000E+00     0.00
 -135.00    35.00      -2.32 -999.99   -2.32    0.00000     0.00  LINEAR    7.28868E-01  -156.50    0.00000E+00     0.00
 -130.00    35.00      -2.36 -999.99   -2.36    0.00000     0.00  LINEAR    7.25642E-01  -160.87    0.00000E+00     0.00
 -125.00    35.00      -2.57 -999.99   -2.57    0.00000     0.00  LINEAR    7.08467E-01  -164.80    0.00000E+00     0.00
 -120.00    35.00      -2.91 -999.99   -2.91    0.00000     0.00  LINEAR    6.81006E-01  -168.27    0.00000E+00     0.00
 -115.00    35.00      -3.35 -999.99   -3.35    0.00000     0.00  LINEAR    6.47457E-01  -171.26    0.00000E+00     0.00
 -110.00    35.00      -3.84 -999.99   -3.84    0.00000     0.00  LINEAR    6.12226E-01  -173.73    0.00000E+00     0.00
 -105.00    35.00      -4.31 -999.99   -4.31    0.00000     0.00  LINEAR    5.79574E-01  -175.67    0.00000E+00     0.00
 -100.00    35.00      -4.72 -999.99   -4.72    0.00000     0.00  LINEAR    5.53257E-01  -177.07    0.00000E+00     0.00
  -95.00    35.00      -4.99 -999.99   -4.99    0.00000     0.00  LINEAR    5.36216E-01  -177.92    0.00000E+00     0.00
  -90.00    35.00      -5.08 -999.99   -5.08    0.00000     0.00  LINEAR    5.30322E-01  -178.20    0.00000E+00     0.00
  -85.00    35.00      -4.99 -999.99   -4.99    0.00000     0.00  LINEAR    5.36216E-01  -177.92    0.00000E+00     0.00
  -80.00    35.00      -4.72 -999.99   -4.72    0.00000     0.00  LINEAR    5.53257E-01  -177.07    0.00000E+00     0.00
  -75.00    35.00      -4.31 -999.99   -4.31    0.00000     0.00  LINEAR    5.79574E-01  -175.67    0.00000E+00     0.00
  -70.00    35.00      -3.84 -999.99   -3.84    0.00000     0.00  LINEAR    6.12226E-01  -173.73    0.00000E+00     0.00
  -65.00    35.00      -3.35 -999.99   -3.35    0.00000     0.00  LINEAR    6.47457E-01  -171.26    0.00000E+00     0.00
  -60.00    35.00      -2.91 -999.99   -2.91    0.00000     0.00  LINEAR    6.81006E-01  -168.27    0.00000E+00     0.00
  -55.00    35.00      -2.57 -999.99   -2.57    0.00000     0.00  LINEAR    7.08467E-01  -164.80    0.00000E+00     0.00
  -50.00    35.00      -2.36 -999.99   -2.36    0.00000     0.00  LINEAR    7.25642E-01  -160.87    0.00000E+00     0.00
  -45.00    35.00      -2.32 -999.99   -2.32    0.00000     0.00  LINEAR    7.28868E-01  -156.50    0.00000E+00     0.00
  -40.00    35.00      -2.49 -999.99   -2.49    0.00000     0.00  LINEAR    7.15289E-01  -151.74    0.00000E+00     0.00
  -35.00    35.00      -2.89 -999.99   -2.89    0.00000     0.00  LINEAR    6.83047E-01  -146.62    0.00000E+00     0.00
  -30.00    35.00      -3.57 -999.99   -3.57    0.00000     0.00  LINEAR    6.31383E-01  -141.18    0.00000E+00     0.00
  -25.00    35.00      -4.60 -999.99   -4.60    0.00000     0.00  LINEAR    5.60658E-01  -135.46    0.00000E+00     0.00
  -20.00    35.00      -6.09 -999.99   -6.09    0.00000     0.00  LINEAR    4.72289E-01  -129.50    0.00000E+00     0.00
  -15.00    35.00      -8.24 -999.99   -8.24    0.00000     0.00  LINEAR    3.68631E-01  -123.35    0.00000E+00     0.00
  -10.00    35.00     -11.52 -999.99  -11.52    0.00000     0.00  LINEAR    2.52816E-01  -117.06    0.00000E+00     0.00
   -5.00    35.00     -17.39 -999.99  -17.39    0.00000     0.00  LINEAR    1.28566E-01  -110.67    0.00000E+00     0.00
    0.00    35.00    -999.99 -999.99 -999.99    0.00000     0.00            0.00000E+00     0.00    0.00000E+00     0.00
 -180.00    40.00    -999.99 -999.99 -999.99    0.00000     0.00            1.51222E-11    75.76    0.00000E+00     0.00
 -175.00    40.00     -17.39 -999.99  -17.39    0.00000     0.00  LINEAR    1.28668E-01  -110.26    0.00000E+00     0.00
 -170.00    40.00     -11.49 -999.99  -11.49    0.00000     0.00  LINEAR    2.53623E-01  -116.23    0.00000E+00     0.00
 -165.00    40.00      -8.18 -999.99   -8.18    0.00000     0.00  LINEAR    3.71302E-01  -122.11    0.00000E+00     0.00
 -160.00    40.00      -5.98 -999.99   -5.98    0.00000     0.00  LINEAR    4.78450E-01  -127.86    0.00000E+00     0.00
 -155.00    40.00      -4.42 -999.99   -4.42    0.00000     0.00  LINEAR    5.72275E-01  -133.44    0.00000E+00     0.00
 -150.00    40.00      -3.31 -999.99   -3.31    0.00000     0.00  LINEAR    6.50604E-01  -138.79    0.00000E+00     0.00
 -145.00    40.00      -2.53 -999.99   -2.53    0.00000     0.00  LINEAR    7.12027E-01  -143.88    0.00000E+00     0.00
 -140.00    40.00      -2.01 -999.99   -2.01    0.00000     0.00  LINEAR    7.56008E-01  -148.67    0.00000E+00     0.00
 -135.00    40.00      -1.70 -999.99   -1.70    0.00000     0.00  LINEAR    7.82962E-01  -153.12    0.00000E+00     0.00
 -130.00    40.00      -1.58 -999.99   -1.58    0.00000     0.00  LINEAR    7.94253E-01  -157.20    0.00000E+00     0.00
 -125.00    40.00      -1.60 -999.99   -1.60    0.00000     0.00  LINEAR    7.92132E-01  -160.88    0.00000E+00     0.00
 -120.00    40.00      -1.74 -999.99   -1.74    0.00000     0.00  LINEAR    7.79587E-01  -164.13    0.00000E+00     0.00
 -115.00    40.00      -1.96 -999.99   -1.96    0.00000     0.00  LINEAR    7.60120E-01  -166.92    0.00000E+00     0.00
 -110.00    40.00      -2.22 -999.99   -2.22    0.00000     0.00  LINEAR    7.37467E-01  -169.23    0.00000E+00     0.00
 -105.00    40.00      -2.49 -999.99   -2.49    0.00000     0.00  LINEAR    7.15284E-01  -171.05    0.00000E+00     0.00
 -100.00    40.00      -2.71 -999.99   -2.71    0.00000     0.00  LINEAR    6.96825E-01  -172.36    0.00000E+00     0.00
  -95.00    40.00      -2.87 -999.99   -2.87    0.00000     0.00  LINEAR    6.84653E-01  -173.15    0.00000E+00     0.00
  -90.00    40.00      -2.92 -999.99   -2.92    0.00000     0.00  LINEAR    6.80408E-01  -173.41    0.00000E+00     0.00
  -85.00    40.00      -2.87 -999.99   -2.87    0.00000     0.00  LINEAR    6.84653E-01  -173.15    0.00000E+00     0.00
  -80.00    40.00      -2.71 -999.99   -2.71    0.00000     0.00  LINEAR    6.96825E-01  -172.36    0.00000E+00     0.00
  -75.00    40.00      -2.49 -999.99   -2.49    0.00000     0.00  LINEAR    7.15284E-01  -171.05    0.00000E+00     0.00
  -70.00    40.00      -2.22 -999.99   -2.22    0.00000     0.00  LINEAR    7.37467E-01  -169.23    0.00000E+00     0.00
  -65.00    40.00      -1.96 -999.99   -1.96    0.00000     0.00  LINEAR    7.60120E-01  -166.92    0.00000E+00     0.00
  -60.00    40.00      -1.74 -999.99   -1.74    0.00000     0.00  LINEAR    7.79587E-01  -164.13    0.00000E+00     0.00
  -55.00    40.00      -1.60 -999.99   -1.60    0.00000     0.00  LINEAR    7.92132E-01  -160.88    0.00000E+00     0.00
  -50.00    40.00      -1.58 -999.99   -1.58    0.00000     0.00  LINEAR    7.94253E-01  -157.20    0.00000E+00     0.00
  -45.00    40.00      -1.70 -999.99   -1.70    0.00000     0.00  LINEAR    7.82962E-01  -153.12    0.00000E+00     0.00
  -40.00    40.00      -2.01 -999.99   -2.01    0.00000     0.00  LINEAR    7.56008E-01  -148.67    0.00000E+00     0.00
  -35.00    40.00      -2.53 -999.99   -2.53    0.00000     0.00  LINEAR    7.12027E-01  -143.88    0.00000E+00     0.00
  -30.00    40.00      -3.31 -999.99   -3.31    0.00000     0.00  LINEAR    6.50604E-01  -138.79    0.00000E+00     0.00
  -25.00    40.00      -4.42 -999.99   -4.42    0.00000     0.00  LINEAR    5.72275E-01  -133.44    0.00000E+00     0.00
  -20.00    40.00      -5.98 -999.99   -5.98    0.00000     0.00  LINEAR    4.78450E-01  -127.86    0.00000E+00     0.00
  -15.00    40.00      -8.18 -999.99   -8.18    0.00000     0.00  LINEAR    3.71302E-01  -122.11    0.00000E+00     0.00
  -10.00    40.00     -11.49 -999.99  -11.49    0.00000     0.00  LINEAR    2.53623E-01  -116.23    0.00000E+00     0.00
   -5.00    40.00     -17.39 -999.99  -17.39    0.00000     0.00  LINEAR    1.28668E-01  -110.26    0.00000E+00     0.00
    0.00    40.00    -999.99 -999.99 -999.99    0.00000     0.00            0.00000E+00     0.00    0.00000E+00     0.00
 -180.00    45.00    -999.99 -999.99 -999.99    0.00000     0.00            1.51222E-11    75.76    0.00000E+00     0.00
 -175.00    45.00     -17.38 -999.99  -17.38    0.00000     0.00  LINEAR    1.28773E-01  -109.79    0.00000E+00     0.00
 -170.00    45.00     -11.46 -999.99  -11.46    0.00000     0.00  LINEAR    2.54456E-01  -115.31    0.00000E+00     0.00
 -165.00    45.00      -8.12 -999.99   -8.12    0.00000     0.00  LINEAR    3.74063E-01  -120.74    0.00000E+00     0.00
 -160.00    45.00      -5.86 -999.99   -5.86    0.00000     0.00  LINEAR    4.84831E-01  -126.05    0.00000E+00     0.00
 -155.00    45.00      -4.24 -999.99   -4.24    0.00000     0.00  LINEAR    5.84333E-01  -131.19    0.00000E+00     0.00
 -150.00    45.00      -3.05 -999.99   -3.05    0.00000     0.00  LINEAR    6.70607E-01  -136.13    0.00000E+00     0.00
 -145.00    45.00      -2.16 -999.99   -2.16    0.00000     0.00  LINEAR    7.42274E-01  -140.83    0.00000E+00     0.00
 -140.00    45.00      -1.53 -999.99   -1.53    0.00000     0.00  LINEAR    7.98645E-01  -145.26    0.00000E+00     0.00
 -135.00    45.00      -1.09 -999.99   -1.09    0.00000     0.00  LINEAR    8.39794E-01  -149.37    0.00000E+00     0.00
 -130.00    45.00      -0.82 -999.99   -0.82    0.00000     0.00  LINEAR    8.66584E-01  -153.14    0.00000E+00     0.00
 -125.00    45.00      -0.68 -999.99   -0.68    0.00000     0.00  LINEAR    8.80631E-01  -156.54    0.00000E+00     0.00
 -120.00    45.00      -0.64 -999.99   -0.64    0.00000     0.00  LINEAR    8.84202E-01  -159.53    0.00000E+00     0.00
 -115.00    45.00      -0.69 -999.99   -0.69    0.00000     0.00  LINEAR    8.80034E-01  -162.11    0.00000E+00     0.00
 -110.00    45.00      -0.77 -999.99   -0.77    0.00000     0.00  LINEAR    8.71115E-01  -164.25    0.00000E+00     0.00
 -105.00    45.00      -0.88 -999.99   -0.88    0.00000     0.00  LINEAR    8.60414E-01  -165.93    0.00000E+00     0.00
 -100.00    45.00      -0.98 -999.99   -0.98    0.00000     0.00  LINEAR    8.50602E-01  -167.13    0.00000E+00     0.00
  -95.00    45.00      -1.05 -999.99   -1.05    0.00000     0.00  LINEAR    8.43802E-01  -167.86    0.00000E+00     0.00
  -90.00    45.00      -1.08 -999.99   -1.08    0.00000     0.00  LINEAR    8.41379E-01  -168.11    0.00000E+00     0.00
  -85.00    45.00      -1.05 -999.99   -1.05    0.00000     0.00  LINEAR    8.43802E-01  -167.86    0.00000E+00     0.00
  -80.00    45.00      -0.98 -999.99   -0.98    0.00000     0.00  LINEAR    8.50602E-01  -167.13    0.00000E+00     0.00
  -75.00    45.00      -0.88 -999.99   -0.88    0.00000     0.00  LINEAR    8.60414E-01  -165.93    0.00000E+00     0.00
  -70.00    45.00      -0.77 -999.99   -0.77    0.00000     0.00  LINEAR    8.71115E-01  -164.25    0.00000E+00     0.00
  -65.00    45.00      -0.69 -999.99   -0.69    0.00000     0.00  LINEAR    8.80034E-01  -162.11    0.00000E+00     0.00
  -60.00    45.00      -0.64 -999.99   -0.64    0.00000     0.00  LINEAR    8.84202E-01  -159.53    0.00000E+00     0.00
  -55.00    45.00      -0.68 -999.99   -0.68    0.00000     0.00  LINEAR    8.80631E-01  -156.54    0.00000E+00     0.00
  -50.00    45.00      -0.82 -999.99   -0.82    0.00000     0.00  LINEAR    8.66584E-01  -153.14    0.00000E+00     0.00
  -45.00    45.00      -1.09 -999.99   -1.09    0.00000     0.00  LINEAR    8.39794E-01  -149.37    0.00000E+00     0.00
  -40.00    45.00      -1.53 -999.99   -1.53    0.00000     0.00  LINEAR    7.98645E-01  -145.26    0.00000E+00     0.00
  -35.00    45.00      -2.16 -999.99   -2.16    0.00000     0.00  LINEAR    7.42274E-01  -140.83    0.00000E+00     0.00
  -30.00    45.00      -3.05 -999.99   -3.05    0.00000     0.00  LINEAR    6.70607E-01  -136.13    0.00000E+00     0.00
  -25.00    45.00      -4.24 -999.99   -4.24    0.00000     0.00  LINEAR    5.84333E-01  -131.19    0.00000E+00     0.00
  -20.00    45.00      -5.86 -999.99   -5.86    0.00000     0.00  LINEAR    4.84831E-01  -126.05    0.00000E+00     0.00
  -15.00    45.00      -8.12 -999.99   -8.12    0.00000     0.00  LINEAR    3.74063E-01  -120.74    0.00000E+00     0.00
  -10.00    45.00     -11.46 -999.99  -11.46    0.00000     0.00  LINEAR    2.54456E-01  -115.31    0.00000E+00     0.00
   -5.00    45.00     -17.38 -999.99  -17.38    0.00000     0.00  LINEAR    1.28773E-01  -109.79    0.00000E+00     0.00
    0.00    45.00    -999.99 -999.99 -999.99    0.00000     0.00            0.00000E+00     0.00    0.00000E+00     0.00
 -180.00    50.00    -999.99 -999.99 -999.99    0.00000     0.00            1.51222E-11    75.76    0.00000E+00     0.00
 -175.00    50.00     -17.37 -999.99  -17.37    0.00000     0.00  LINEAR    1.28879E-01  -109.29    0.00000E+00     0.00
 -170.00    50.00     -11.44 -999.99  -11.44    0.00000     0.00  LINEAR    2.55289E-01  -114.30    0.00000E+00     0.00
 -165.00    50.00      -8.05 -999.99   -8.05    0.00000     0.00  LINEAR    3.76830E-01  -119.24    0.00000E+00     0.00
 -160.00    50.00      -5.75 -999.99   -5.75    0.00000     0.00  LINEAR    4.91238E-01  -124.07    0.00000E+00     0.00
 -155.00    50.00      -4.06 -999.99   -4.06    0.00000     0.00  LINEAR    5.96469E-01  -128.74    0.00000E+00     0.00
 -150.00    50.00      -2.79 -999.99   -2.79    0.00000     0.00  LINEAR    6.90794E-01  -133.24    0.00000E+00     0.00
 -145.00    50.00      -1.81 -999.99   -1.81    0.00000     0.00  LINEAR    7.72890E-01  -137.51    0.00000E+00     0.00
 -140.00    50.00      -1.07 -999.99   -1.07    0.00000     0.00  LINEAR    8.41939E-01  -141.53    0.00000E+00     0.00
 -135.00    50.00      -0.51 -999.99   -0.51    0.00000     0.00  LINEAR    8.97696E-01  -145.27    0.00000E+00     0.00
 -130.00    50.00      -0.11 -999.99   -0.11    0.00000     0.00  LINEAR    9.40529E-01  -148.70    0.00000E+00     0.00
 -125.00    50.00       0.17 -999.99    0.17    0.00000     0.00  LINEAR    9.71410E-01  -151.79    0.00000E+00     0.00
 -120.00    50.00       0.35 -999.99    0.35    0.00000     0.00  LINEAR    9.91854E-01  -154.52    0.00000E+00     0.00
 -115.00    50.00       0.46 -999.99    0.46    0.00000     0.00  LINEAR    1.00379E+00  -156.86    0.00000E+00     0.00
 -110.00    50.00       0.51 -999.99    0.51    0.00000     0.00  LINEAR    1.00940E+00  -158.80    0.00000E+00     0.00
 -105.00    50.00       0.52 -999.99    0.52    0.00000     0.00  LINEAR    1.01090E+00  -160.33    0.00000E+00     0.00
 -100.00    50.00       0.51 -999.99    0.51    0.00000     0.00  LINEAR    1.01030E+00  -161.43    0.00000E+00     0.00
  -95.00    50.00       0.50 -999.99    0.50    0.00000     0.00  LINEAR    1.00924E+00  -162.09    0.00000E+00     0.00
  -90.00    50.00       0.50 -999.99    0.50    0.00000     0.00  LINEAR    1.00877E+00  -162.31    0.00000E+00     0.00
  -85.00    50.00       0.50 -999.99    0.50    0.00000     0.00  LINEAR    1.00924E+00  -162.09    0.00000E+00     0.00
  -80.00    50.00       0.51 -999.99    0.51    0.00000     0.00  LINEAR    1.01030E+00  -161.43    0.00000E+00     0.00
  -75.00    50.00       0.52 -999.99    0.52    0.00000     0.00  LINEAR    1.01090E+00  -160.33    0.00000E+00     0.00
  -70.00    50.00       0.51 -999.99    0.51    0.00000     0.00  LINEAR    1.00940E+00  -158.80    0.00000E+00     0.00
  -65.00    50.00       0.46 -999.99    0.46    0.00000     0.00  LINEAR    1.00379E+00  -156.86    0.00000E+00     0.00
  -60.00    50.00       0.35 -999.99    0.35    0.00000     0.00  LINEAR    9.91854E-01  -154.52    0.00000E+00     0.00
  -55.00    50.00       0.17 -999.99    0.17    0.00000     0.00  LINEAR    9.71410E-01  -151.79    0.00000E+00     0.00
  -50.00    50.00      -0.11 -999.99   -0.11    0.00000     0.00  LINEAR    9.40529E-01  -148.70    0.00000E+00     0.00
  -45.00    50.00      -0.51 -999.99   -0.51    0.00000     0.00  LINEAR    8.97696E-01  -145.27    0.00000E+00     0.00
  -40.00    50.00      -1.07 -999.99   -1.07    0.00000     0.00  LINEAR    8.41939E-01  -141.53    0.00000E+00     0.00
  -35.00    50.00      -1.81 -999.99   -1.81    0.00000     0.00  LINEAR    7.72890E-01  -137.51    0.00000E+00     0.00
  -30.00    50.00      -2.79 -999.99   -2.79    0.00000     0.00  LINEAR    6.90794E-01  -133.24    0.00000E+00     0.00
  -25.00    50.00      -4.06 -999.99   -4.06    0.00000     0.00  LINEAR    5.96469E-01  -128.74    0.00000E+00     0.00
  -20.00    50.00      -5.75 -999.99   -5.75    0.00000     0.00  LINEAR    4.91238E-01  -124.07    0.00000E+00     0.00
  -15.00    50.00      -8.05 -999.99   -8.05    0.00000     0.00  LINEAR    3.76830E-01  -119.24    0.00000E+00     0.00
  -10.00    50.00     -11.44 -999.99  -11.44    0.00000     0.00  LINEAR    2.55289E-01  -114.30    0.00000E+00     0.00
   -5.00    50.00     -17.37 -999.99  -17.37    0.00000     0.00  LINEAR    1.28879E-01  -109.29    0.00000E+00     0.00
    0.00    50.00    -999.99 -999.99 -999.99    0.00000     0.00            0.00000E+00     0.00    0.00000E+00     0.00
 -180.00    55.00    -999.99 -999.99 -999.99    0.00000     0.00            1.51222E-11    75.76    0.00000E+00     0.00
 -175.00    55.00     -17.37 -999.99  -17.37    0.00000     0.00  LINEAR    1.28981E-01  -108.75    0.00000E+00     0.00
 -170.00    55.00     -11.41 -999.99  -11.41    0.00000     0.00  LINEAR    2.56099E-01  -113.22    0.00000E+00     0.00
 -165.00    55.00      -7.99 -999.99   -7.99    0.00000     0.00  LINEAR    3.79520E-01  -117.63    0.00000E+00     0.00
 -160.00    55.00      -5.64 -999.99   -5.64    0.00000     0.00  LINEAR    4.97477E-01  -121.93    0.00000E+00     0.00
 -155.00    55.00      -3.89 -999.99   -3.89    0.00000     0.00  LINEAR    6.08312E-01  -126.11    0.00000E+00     0.00
 -150.00    55.00      -2.54 -999.99   -2.54    0.00000     0.00  LINEAR    7.10543E-01  -130.12    0.00000E+00     0.00
 -145.00    55.00      -1.48 -999.99   -1.48    0.00000     0.00  LINEAR    8.02930E-01  -133.94    0.00000E+00     0.00
 -140.00    55.00      -0.64 -999.99   -0.64    0.00000     0.00  LINEAR    8.84551E-01  -137.53    0.00000E+00     0.00
 -135.00    55.00       0.02 -999.99    0.02    0.00000     0.00  LINEAR    9.54872E-01  -140.87    0.00000E+00     0.00
 -130.00    55.00       0.54 -999.99    0.54    0.00000     0.00  LINEAR    1.01379E+00  -143.93    0.00000E+00     0.00
 -125.00    55.00       0.94 -999.99    0.94    0.00000     0.00  LINEAR    1.06164E+00  -146.68    0.00000E+00     0.00
 -120.00    55.00       1.25 -999.99    1.25    0.00000     0.00  LINEAR    1.09919E+00  -149.12    0.00000E+00     0.00
 -115.00    55.00       1.47 -999.99    1.47    0.00000     0.00  LINEAR    1.12753E+00  -151.21    0.00000E+00     0.00
 -110.00    55.00       1.62 -999.99    1.62    0.00000     0.00  LINEAR    1.14801E+00  -152.95    0.00000E+00     0.00
 -105.00    55.00       1.73 -999.99    1.73    0.00000     0.00  LINEAR    1.16203E+00  -154.31    0.00000E+00     0.00
 -100.00    55.00       1.79 -999.99    1.79    0.00000     0.00  LINEAR    1.17093E+00  -155.29    0.00000E+00     0.00
  -95.00    55.00       1.83 -999.99    1.83    0.00000     0.00  LINEAR    1.17580E+00  -155.88    0.00000E+00     0.00
  -90.00    55.00       1.84 -999.99    1.84    0.00000     0.00  LINEAR    1.17733E+00  -156.08    0.00000E+00     0.00
  -85.00    55.00       1.83 -999.99    1.83    0.00000     0.00  LINEAR    1.17580E+00  -155.88    0.00000E+00     0.00
  -80.00    55.00       1.79 -999.99    1.79    0.00000     0.00  LINEAR    1.17093E+00  -155.29    0.00000E+00     0.00
  -75.00    55.00       1.73 -999.99    1.73    0.00000     0.00  LINEAR    1.16203E+00  -154.31    0.00000E+00     0.00
  -70.00    55.00       1.62 -999.99    1.62    0.00000     0.00  LINEAR    1.14801E+00  -152.95    0.00000E+00     0.00
  -65.00    55.00       1.47 -999.99    1.47    0.00000     0.00  LINEAR    1.12753E+00  -151.21    0.00000E+00     0.00
  -60.00    55.00       1.25 -999.99    1.25    0.00000     0.00  LINEAR    1.09919E+00  -149.12    0.00000E+00     0.00
  -55.00    55.00       0.94 -999.99    0.94    0.00000     0.00  LINEAR    1.06164E+00  -146.68    0.00000E+00     0.00
  -50.00    55.00       0.54 -999.99    0.54    0.00000     0.00  LINEAR    1.01379E+00  -143.93    0.00000E+00     0.00
  -45.00    55.00       0.02 -999.99    0.02    0.00000     0.00  LINEAR    9.54872E-01  -140.87    0.00000E+00     0.00
  -40.00    55.00      -0.64 -999.99   -0.64    0.00000     0.00  LINEAR    8.84551E-01  -137.53    0.00000E+00     0.00
  -35.00    55.00      -1.48 -999.99   -1.48    0.00000     0.00  LINEAR    8.02930E-01  -133.94    0.00000E+00     0.00
  -30.00    55.00      -2.54 -999.99   -2.54    0.00000     0.00  LINEAR    7.10543E-01  -130.12    0.00000E+00     0.00
  -25.00    55.00      -3.89 -999.99   -3.89    0.00000     0.00  LINEAR    6.08312E-01  -126.11    0.00000E+00     0.00
  -20.00    55.00      -5.64 -999.99   -5.64    0.00000     0.00  LINEAR    4.97477E-01  -121.93    0.00000E+00     0.00
  -15.00    55.00      -7.99 -999.99   -7.99    0.00000     0.00  LINEAR    3.79520E-01  -117.63    0.00000E+00     0.00
  -10.00    55.00     -11.41 -999.99  -11.41    0.00000     0.00  LINEAR    2.56099E-01  -113.22    0.00000E+00     0.00
   -5.00    55.00     -17.37 -999.99  -17.37    0.00000     0.00  LINEAR    1.28981E-01  -108.75    0.00000E+00     0.00
    0.00    55.00    -999.99 -999.99 -999.99    0.00000     0.00            0.00000E+00     0.00    0.00000E+00     0.00
 -180.00    60.00    -999.99 -999.99 -999.99    0.00000     0.00            1.51222E-11    75.76    0.00000E+00     0.00
 -175.00    60.00     -17.36 -999.99  -17.36    0.00000     0.00  LINEAR    1.29076E-01  -108.17    0.00000E+00     0.00
 -170.00    60.00     -11.38 -999.99  -11.38    0.00000     0.00  LINEAR    2.56859E-01  -112.07    0.00000E+00     0.00
 -165.00    60.00      -7.93 -999.99   -7.93    0.00000     0.00  LINEAR    3.82050E-01  -115.91    0.00000E+00     0.00
 -160.00    60.00      -5.54 -999.99   -5.54    0.00000     0.00  LINEAR    5.03354E-01  -119.67    0.00000E+00     0.00
 -155.00    60.00      -3.74 -999.99   -3.74    0.00000     0.00  LINEAR    6.19492E-01  -123.31    0.00000E+00     0.00
 -150.00    60.00      -2.32 -999.99   -2.32    0.00000     0.00  LINEAR    7.29232E-01  -126.81    0.00000E+00     0.00
 -145.00    60.00      -1.18 -999.99   -1.18    0.00000     0.00  LINEAR    8.31434E-01  -130.14    0.00000E+00     0.00
 -140.00    60.00      -0.25 -999.99   -0.25    0.00000     0.00  LINEAR    9.25105E-01  -133.27    0.00000E+00     0.00
 -135.00    60.00       0.51 -999.99    0.51    0.00000     0.00  LINEAR    1.00945E+00  -136.18    0.00000E+00     0.00
 -130.00    60.00       1.12 -999.99    1.12    0.00000     0.00  LINEAR    1.08394E+00  -138.85    0.00000E+00     0.00
 -125.00    60.00       1.63 -999.99    1.63    0.00000     0.00  LINEAR    1.14830E+00  -141.26    0.00000E+00     0.00
 -120.00    60.00       2.03 -999.99    2.03    0.00000     0.00  LINEAR    1.20257E+00  -143.38    0.00000E+00     0.00
 -115.00    60.00       2.34 -999.99    2.34    0.00000     0.00  LINEAR    1.24704E+00  -145.21    0.00000E+00     0.00
 -110.00    60.00       2.58 -999.99    2.58    0.00000     0.00  LINEAR    1.28218E+00  -146.72    0.00000E+00     0.00
 -105.00    60.00       2.76 -999.99    2.76    0.00000     0.00  LINEAR    1.30860E+00  -147.91    0.00000E+00     0.00
 -100.00    60.00       2.88 -999.99    2.88    0.00000     0.00  LINEAR    1.32693E+00  -148.77    0.00000E+00     0.00
  -95.00    60.00       2.95 -999.99    2.95    0.00000     0.00  LINEAR    1.33768E+00  -149.28    0.00000E+00     0.00
  -90.00    60.00       2.97 -999.99    2.97    0.00000     0.00  LINEAR    1.34122E+00  -149.45    0.00000E+00     0.00
  -85.00    60.00       2.95 -999.99    2.95    0.00000     0.00  LINEAR    1.33768E+00  -149.28    0.00000E+00     0.00
  -80.00    60.00       2.88 -999.99    2.88    0.00000     0.00  LINEAR    1.32693E+00  -148.77    0.00000E+00     0.00
  -75.00    60.00       2.76 -999.99    2.76    0.00000     0.00  LINEAR    1.30860E+00  -147.91    0.00000E+00     0.00
  -70.00    60.00       2.58 -999.99    2.58    0.00000     0.00  LINEAR    1.28218E+00  -146.72    0.00000E+00     0.00
  -65.00    60.00       2.34 -999.99    2.34    0.00000     0.00  LINEAR    1.24704E+00  -145.21    0.00000E+00     0.00
  -60.00    60.00       2.03 -999.99    2.03    0.00000     0.00  LINEAR    1.20257E+00  -143.38    0.00000E+00     0.00
  -55.00    60.00       1.63 -999.99    1.63    0.00000     0.00  LINEAR    1.14830E+00  -141.26    0.00000E+00     0.00
  -50.00    60.00       1.12 -999.99    1.12    0.00000     0.00  LINEAR    1.08394E+00  -138.85    0.00000E+00     0.00
  -45.00    60.00       0.51 -999.99    0.51    0.00000     0.00  LINEAR    1.00945E+00  -136.18    0.00000E+00     0.00
  -40.00    60.00      -0.25 -999.99   -0.25    0.00000     0.00  LINEAR    9.25105E-01  -133.27    0.00000E+00     0.00
  -35.00    60.00      -1.18 -999.99   -1.18    0.00000     0.00  LINEAR    8.31434E-01  -130.14    0.00000E+00     0.00
  -30.00    60.00      -2.32 -999.99   -2.32    0.00000     0.00  LINEAR    7.29232E-01  -126.81    0.00000E+00     0.00
  -25.00    60.00      -3.74 -999.99   -3.74    0.00000     0.00  LINEAR    6.19492E-01  -123.31    0.00000E+00     0.00
  -20.00    60.00      -5.54 -999.99   -5.54    0.00000     0.00  LINEAR    5.03354E-01  -119.67    0.00000E+00     0.00
  -15.00    60.00      -7.93 -999.99   -7.93    0.00000     0.00  LINEAR    3.82050E-01  -115.91    0.00000E+00     0.00
  -10.00    60.00     -11.38 -999.99  -11.38    0.00000     0.00  LINEAR    2.56859E-01  -112.07    0.00000E+00     0.00
   -5.00    60.00     -17.36 -999.99  -17.36    0.00000     0.00  LINEAR    1.29076E-01  -108.17    0.00000E+00     0.00
    0.00    60.00    -999.99 -999.99 -999.99    0.00000     0.00            0.00000E+00     0.00    0.00000E+00     0.00
 -180.00    65.00    -999.99 -999.99 -999.99    0.00000     0.00            1.51222E-11    75.76    0.00000E+00     0.00
 -175.00    65.00     -17.35 -999.99  -17.35    0.00000     0.00  LINEAR    1.29163E-01  -107.56    0.00000E+00     0.00
 -170.00    65.00     -11.36 -999.99  -11.36    0.00000     0.00  LINEAR    2.57546E-01  -110.86    0.00000E+00     0.00
 -165.00    65.00      -7.88 -999.99   -7.88    0.00000     0.00  LINEAR    3.84341E-01  -114.11    0.00000E+00     0.00
 -160.00    65.00      -5.45 -999.99   -5.45    0.00000     0.00  LINEAR    5.08685E-01  -117.28    0.00000E+00     0.00
 -155.00    65.00      -3.59 -999.99   -3.59    0.00000     0.00  LINEAR    6.29652E-01  -120.36    0.00000E+00     0.00
 -150.00    65.00      -2.12 -999.99   -2.12    0.00000     0.00  LINEAR    7.46256E-01  -123.32    0.00000E+00     0.00
 -145.00    65.00      -0.91 -999.99   -0.91    0.00000     0.00  LINEAR    8.57465E-01  -126.14    0.00000E+00     0.00
 -140.00    65.00       0.09 -999.99    0.09    0.00000     0.00  LINEAR    9.62240E-01  -128.79    0.00000E+00     0.00
 -135.00    65.00       0.93 -999.99    0.93    0.00000     0.00  LINEAR    1.05957E+00  -131.25    0.00000E+00     0.00
 -130.00    65.00       1.63 -999.99    1.63    0.00000     0.00  LINEAR    1.14854E+00  -133.51    0.00000E+00     0.00
 -125.00    65.00       2.21 -999.99    2.21    0.00000     0.00  LINEAR    1.22833E+00  -135.55    0.00000E+00     0.00
 -120.00    65.00       2.69 -999.99    2.69    0.00000     0.00  LINEAR    1.29829E+00  -137.35    0.00000E+00     0.00
 -115.00    65.00       3.08 -999.99    3.08    0.00000     0.00  LINEAR    1.35793E+00  -138.89    0.00000E+00     0.00
 -110.00    65.00       3.39 -999.99    3.39    0.00000     0.00  LINEAR    1.40694E+00  -140.17    0.00000E+00     0.00
 -105.00    65.00       3.62 -999.99    3.62    0.00000     0.00  LINEAR    1.44512E+00  -141.18    0.00000E+00     0.00
 -100.00    65.00       3.78 -999.99    3.78    0.00000     0.00  LINEAR    1.47241E+00  -141.90    0.00000E+00     0.00
  -95.00    65.00       3.88 -999.99    3.88    0.00000     0.00  LINEAR    1.48877E+00  -142.34    0.00000E+00     0.00
  -90.00    65.00       3.91 -999.99    3.91    0.00000     0.00  LINEAR    1.49422E+00  -142.49    0.00000E+00     0.00
  -85.00    65.00       3.88 -999.99    3.88    0.00000     0.00  LINEAR    1.48877E+00  -142.34    0.00000E+00     0.00
  -80.00    65.00       3.78 -999.99    3.78    0.00000     0.00  LINEAR    1.47241E+00  -141.90    0.00000E+00     0.00
  -75.00    65.00       3.62 -999.99    3.62    0.00000     0.00  LINEAR    1.44512E+00  -141.18    0.00000E+00     0.00
  -70.00    65.00       3.39 -999.99    3.39    0.00000     0.00  LINEAR    1.40694E+00  -140.17    0.00000E+00     0.00
  -65.00    65.00       3.08 -999.99    3.08    0.00000     0.00  LINEAR    1.35793E+00  -138.89    0.00000E+00     0.00
  -60.00    65.00       2.69 -999.99    2.69    0.00000     0.00  LINEAR    1.29829E+00  -137.35    0.00000E+00     0.00
  -55.00    65.00       2.21 -999.99    2.21    0.00000     0.00  LINEAR    1.22833E+00  -135.55    0.00000E+00     0.00
  -50.00    65.00       1.63 -999.99    1.63    0.00000     0.00  LINEAR    1.14854E+00  -133.51    0.00000E+00     0.00
  -45.00    65.00       0.93 -999.99    0.93    0.00000     0.00  LINEAR    1.05957E+00  -131.25    0.00000E+00     0.00
  -40.00    65.00       0.09 -999.99    0.09    0.00000     0.00  LINEAR    9.62240E-01  -128.79    0.00000E+00     0.00
  -35.00    65.00      -0.91 -999.99   -0.91    0.00000     0.00  LINEAR    8.57465E-01  -126.14    0.00000E+00     0.00
  -30.00    65.00      -2.12 -999.99   -2.12    0.00000     0.00  LINEAR    7.46256E-01  -123.32    0.00000E+00     0.00
  -25.00    65.00      -3.59 -999.99   -3.59    0.00000     0.00  LINEAR    6.29652E-01  -120.36    0.00000E+00     0.00
  -20.00    65.00      -5.45 -999.99   -5.45    0.00000     0.00  LINEAR    5.08685E-01  -117.28    0.00000E+00     0.00
  -15.00    65.00      -7.88 -999.99   -7.88    0.00000     0.00  LINEAR    3.84341E-01  -114.11    0.00000E+00     0.00
  -10.00    65.00     -11.36 -999.99  -11.36    0.00000     0.00  LINEAR    2.57546E-01  -110.86    0.00000E+00     0.00
   -5.00    65.00     -17.35 -999.99  -17.35    0.00000     0.00  LINEAR    1.29163E-01  -107.56    0.00000E+00     0.00
    0.00    65.00    -999.99 -999.99 -999.99    0.00000     0.00            0.00000E+00     0.00    0.00000E+00     0.00
 -180.00    70.00    -999.99 -999.99 -999.99    0.00000     0.00            1.51222E-11    75.76    0.00000E+00     0.00
 -175.00    70.00     -17.35 -999.99  -17.35    0.00000     0.00  LINEAR    1.29238E-01  -106.93    0.00000E+00     0.00
 -170.00    70.00     -11.34 -999.99  -11.34    0.00000     0.00  LINEAR    2.58141E-01  -109.60    0.00000E+00     0.00
 -165.00    70.00      -7.84 -999.99   -7.84    0.00000     0.00  LINEAR    3.86322E-01  -112.23    0.00000E+00     0.00
 -160.00    70.00      -5.37 -999.99   -5.37    0.00000     0.00  LINEAR    5.13302E-01  -114.80    0.00000E+00     0.00
 -155.00    70.00      -3.47 -999.99   -3.47    0.00000     0.00  LINEAR    6.38467E-01  -117.30    0.00000E+00     0.00
 -150.00    70.00      -1.95 -999.99   -1.95    0.00000     0.00  LINEAR    7.61053E-01  -119.69    0.00000E+00     0.00
 -145.00    70.00      -0.68 -999.99   -0.68    0.00000     0.00  LINEAR    8.80140E-01  -121.98    0.00000E+00     0.00
 -140.00    70.00       0.38 -999.99    0.38    0.00000     0.00  LINEAR    9.94664E-01  -124.12    0.00000E+00     0.00
 -135.00    70.00       1.28 -999.99    1.28    0.00000     0.00  LINEAR    1.10344E+00  -126.12    0.00000E+00     0.00
 -130.00    70.00       2.05 -999.99    2.05    0.00000     0.00  LINEAR    1.20522E+00  -127.95    0.00000E+00     0.00
 -125.00    70.00       2.69 -999.99    2.69    0.00000     0.00  LINEAR    1.29871E+00  -129.60    0.00000E+00     0.00
 -120.00    70.00       3.24 -999.99    3.24    0.00000     0.00  LINEAR    1.38266E+00  -131.06    0.00000E+00     0.00
 -115.00    70.00       3.69 -999.99    3.69    0.00000     0.00  LINEAR    1.45590E+00  -132.31    0.00000E+00     0.00
 -110.00    70.00       4.05 -999.99    4.05    0.00000     0.00  LINEAR    1.51734E+00  -133.35    0.00000E+00     0.00
 -105.00    70.00       4.32 -999.99    4.32    0.00000     0.00  LINEAR    1.56611E+00  -134.17    0.00000E+00     0.00
 -100.00    70.00       4.51 -999.99    4.51    0.00000     0.00  LINEAR    1.60147E+00  -134.75    0.00000E+00     0.00
  -95.00    70.00       4.63 -999.99    4.63    0.00000     0.00  LINEAR    1.62289E+00  -135.11    0.00000E+00     0.00
[...]
  -70.00   340.00      -9.60 -999.99   -9.60    0.00000     0.00  LINEAR    3.15237E-01   176.07    0.00000E+00     0.00
  -65.00   340.00      -8.00 -999.99   -8.00    0.00000     0.00  LINEAR    3.79042E-01   178.90    0.00000E+00     0.00
  -60.00   340.00      -6.61 -999.99   -6.61    0.00000     0.00  LINEAR    4.44890E-01  -177.67    0.00000E+00     0.00
  -55.00   340.00      -5.48 -999.99   -5.48    0.00000     0.00  LINEAR    5.06921E-01  -173.69    0.00000E+00     0.00
  -50.00   340.00      -4.62 -999.99   -4.62    0.00000     0.00  LINEAR    5.59365E-01  -169.18    0.00000E+00     0.00
  -45.00   340.00      -4.06 -999.99   -4.06    0.00000     0.00  LINEAR    5.96978E-01  -164.18    0.00000E+00     0.00
  -40.00   340.00      -3.79 -999.99   -3.79    0.00000     0.00  LINEAR    6.15421E-01  -158.72    0.00000E+00     0.00
  -35.00   340.00      -3.85 -999.99   -3.85    0.00000     0.00  LINEAR    6.11571E-01  -152.85    0.00000E+00     0.00
  -30.00   340.00      -4.25 -999.99   -4.25    0.00000     0.00  LINEAR    5.83731E-01  -146.61    0.00000E+00     0.00
  -25.00   340.00      -5.06 -999.99   -5.06    0.00000     0.00  LINEAR    5.31726E-01  -140.04    0.00000E+00     0.00
  -20.00   340.00      -6.38 -999.99   -6.38    0.00000     0.00  LINEAR    4.56885E-01  -133.21    0.00000E+00     0.00
  -15.00   340.00      -8.40 -999.99   -8.40    0.00000     0.00  LINEAR    3.61933E-01  -126.16    0.00000E+00     0.00
  -10.00   340.00     -11.59 -999.99  -11.59    0.00000     0.00  LINEAR    2.50788E-01  -118.94    0.00000E+00     0.00
   -5.00   340.00     -17.41 -999.99  -17.41    0.00000     0.00  LINEAR    1.28309E-01  -111.62    0.00000E+00     0.00
    0.00   340.00    -999.99 -999.99 -999.99    0.00000     0.00            0.00000E+00     0.00    0.00000E+00     0.00
 -180.00   345.00    -999.99 -999.99 -999.99    0.00000     0.00            1.51222E-11    75.76    0.00000E+00     0.00
 -175.00   345.00     -17.41 -999.99  -17.41    0.00000     0.00  LINEAR    1.28249E-01  -111.83    0.00000E+00     0.00
 -170.00   345.00     -11.61 -999.99  -11.61    0.00000     0.00  LINEAR    2.50311E-01  -119.36    0.00000E+00     0.00
 -165.00   345.00      -8.44 -999.99   -8.44    0.00000     0.00  LINEAR    3.60359E-01  -126.77    0.00000E+00     0.00
 -160.00   345.00      -6.45 -999.99   -6.45    0.00000     0.00  LINEAR    4.53276E-01  -134.02    0.00000E+00     0.00
 -155.00   345.00      -5.17 -999.99   -5.17    0.00000     0.00  LINEAR    5.24971E-01  -141.04    0.00000E+00     0.00
 -150.00   345.00      -4.42 -999.99   -4.42    0.00000     0.00  LINEAR    5.72651E-01  -147.79    0.00000E+00     0.00
 -145.00   345.00      -4.09 -999.99   -4.09    0.00000     0.00  LINEAR    5.95029E-01  -154.20    0.00000E+00     0.00
 -140.00   345.00      -4.12 -999.99   -4.12    0.00000     0.00  LINEAR    5.92424E-01  -160.24    0.00000E+00     0.00
 -135.00   345.00      -4.51 -999.99   -4.51    0.00000     0.00  LINEAR    5.66771E-01  -165.85    0.00000E+00     0.00
 -130.00   345.00      -5.23 -999.99   -5.23    0.00000     0.00  LINEAR    5.21494E-01  -170.99    0.00000E+00     0.00
 -125.00   345.00      -6.30 -999.99   -6.30    0.00000     0.00  LINEAR    4.61270E-01  -175.63    0.00000E+00     0.00
 -120.00   345.00      -7.72 -999.99   -7.72    0.00000     0.00  LINEAR    3.91695E-01  -179.72    0.00000E+00     0.00
 -115.00   345.00      -9.50 -999.99   -9.50    0.00000     0.00  LINEAR    3.18869E-01   176.76    0.00000E+00     0.00
 -110.00   345.00     -11.65 -999.99  -11.65    0.00000     0.00  LINEAR    2.48951E-01   173.85    0.00000E+00     0.00
 -105.00   345.00     -14.11 -999.99  -14.11    0.00000     0.00  LINEAR    1.87706E-01   171.56    0.00000E+00     0.00
 -100.00   345.00     -16.65 -999.99  -16.65    0.00000     0.00  LINEAR    1.40097E-01   169.91    0.00000E+00     0.00
  -95.00   345.00     -18.75 -999.99  -18.75    0.00000     0.00  LINEAR    1.09932E-01   168.92    0.00000E+00     0.00
  -90.00   345.00     -19.61 -999.99  -19.61    0.00000     0.00  LINEAR    9.96053E-02   168.58    0.00000E+00     0.00
  -85.00   345.00     -18.75 -999.99  -18.75    0.00000     0.00  LINEAR    1.09932E-01   168.92    0.00000E+00     0.00
  -80.00   345.00     -16.65 -999.99  -16.65    0.00000     0.00  LINEAR    1.40097E-01   169.91    0.00000E+00     0.00
  -75.00   345.00     -14.11 -999.99  -14.11    0.00000     0.00  LINEAR    1.87706E-01   171.56    0.00000E+00     0.00
  -70.00   345.00     -11.65 -999.99  -11.65    0.00000     0.00  LINEAR    2.48951E-01   173.85    0.00000E+00     0.00
  -65.00   345.00      -9.50 -999.99   -9.50    0.00000     0.00  LINEAR    3.18869E-01   176.76    0.00000E+00     0.00
  -60.00   345.00      -7.72 -999.99   -7.72    0.00000     0.00  LINEAR    3.91695E-01  -179.72    0.00000E+00     0.00
  -55.00   345.00      -6.30 -999.99   -6.30    0.00000     0.00  LINEAR    4.61270E-01  -175.63    0.00000E+00     0.00
  -50.00   345.00      -5.23 -999.99   -5.23    0.00000     0.00  LINEAR    5.21494E-01  -170.99    0.00000E+00     0.00
  -45.00   345.00      -4.51 -999.99   -4.51    0.00000     0.00  LINEAR    5.66771E-01  -165.85    0.00000E+00     0.00
  -40.00   345.00      -4.12 -999.99   -4.12    0.00000     0.00  LINEAR    5.92424E-01  -160.24    0.00000E+00     0.00
  -35.00   345.00      -4.09 -999.99   -4.09    0.00000     0.00  LINEAR    5.95029E-01  -154.20    0.00000E+00     0.00
  -30.00   345.00      -4.42 -999.99   -4.42    0.00000     0.00  LINEAR    5.72651E-01  -147.79    0.00000E+00     0.00
  -25.00   345.00      -5.17 -999.99   -5.17    0.00000     0.00  LINEAR    5.24971E-01  -141.04    0.00000E+00     0.00
  -20.00   345.00      -6.45 -999.99   -6.45    0.00000     0.00  LINEAR    4.53276E-01  -134.02    0.00000E+00     0.00
  -15.00   345.00      -8.44 -999.99   -8.44    0.00000     0.00  LINEAR    3.60359E-01  -126.77    0.00000E+00     0.00
  -10.00   345.00     -11.61 -999.99  -11.61    0.00000     0.00  LINEAR    2.50311E-01  -119.36    0.00000E+00     0.00
   -5.00   345.00     -17.41 -999.99  -17.41    0.00000     0.00  LINEAR    1.28249E-01  -111.83    0.00000E+00     0.00
    0.00   345.00    -999.99 -999.99 -999.99    0.00000     0.00            0.00000E+00     0.00    0.00000E+00     0.00
 -180.00   350.00    -999.99 -999.99 -999.99    0.00000     0.00            1.51222E-11    75.76    0.00000E+00     0.00
 -175.00   350.00     -17.42 -999.99  -17.42    0.00000     0.00  LINEAR    1.28204E-01  -111.97    0.00000E+00     0.00
 -170.00   350.00     -11.62 -999.99  -11.62    0.00000     0.00  LINEAR    2.49959E-01  -119.65    0.00000E+00     0.00
 -165.00   350.00      -8.47 -999.99   -8.47    0.00000     0.00  LINEAR    3.59201E-01  -127.21    0.00000E+00     0.00
 -160.00   350.00      -6.50 -999.99   -6.50    0.00000     0.00  LINEAR    4.50623E-01  -134.60    0.00000E+00     0.00
 -155.00   350.00      -5.26 -999.99   -5.26    0.00000     0.00  LINEAR    5.20010E-01  -141.76    0.00000E+00     0.00
 -150.00   350.00      -4.54 -999.99   -4.54    0.00000     0.00  LINEAR    5.64526E-01  -148.64    0.00000E+00     0.00
 -145.00   350.00      -4.26 -999.99   -4.26    0.00000     0.00  LINEAR    5.82916E-01  -155.18    0.00000E+00     0.00
 -140.00   350.00      -4.37 -999.99   -4.37    0.00000     0.00  LINEAR    5.75614E-01  -161.33    0.00000E+00     0.00
 -135.00   350.00      -4.85 -999.99   -4.85    0.00000     0.00  LINEAR    5.44730E-01  -167.05    0.00000E+00     0.00
 -130.00   350.00      -5.70 -999.99   -5.70    0.00000     0.00  LINEAR    4.93911E-01  -172.30    0.00000E+00     0.00
 -125.00   350.00      -6.95 -999.99   -6.95    0.00000     0.00  LINEAR    4.28083E-01  -177.02    0.00000E+00     0.00
 -120.00   350.00      -8.62 -999.99   -8.62    0.00000     0.00  LINEAR    3.53093E-01   178.81    0.00000E+00     0.00
 -115.00   350.00     -10.78 -999.99  -10.78    0.00000     0.00  LINEAR    2.75278E-01   175.22    0.00000E+00     0.00
 -110.00   350.00     -13.51 -999.99  -13.51    0.00000     0.00  LINEAR    2.01002E-01   172.25    0.00000E+00     0.00
 -105.00   350.00     -16.89 -999.99  -16.89    0.00000     0.00  LINEAR    1.36202E-01   169.92    0.00000E+00     0.00
 -100.00   350.00     -20.89 -999.99  -20.89    0.00000     0.00  LINEAR    8.59662E-02   168.24    0.00000E+00     0.00
  -95.00   350.00     -24.90 -999.99  -24.90    0.00000     0.00  LINEAR    5.41915E-02   167.22    0.00000E+00     0.00
  -90.00   350.00     -26.84 -999.99  -26.84    0.00000     0.00  LINEAR    4.33224E-02   166.88    0.00000E+00     0.00
  -85.00   350.00     -24.90 -999.99  -24.90    0.00000     0.00  LINEAR    5.41915E-02   167.22    0.00000E+00     0.00
  -80.00   350.00     -20.89 -999.99  -20.89    0.00000     0.00  LINEAR    8.59662E-02   168.24    0.00000E+00     0.00
  -75.00   350.00     -16.89 -999.99  -16.89    0.00000     0.00  LINEAR    1.36202E-01   169.92    0.00000E+00     0.00
  -70.00   350.00     -13.51 -999.99  -13.51    0.00000     0.00  LINEAR    2.01002E-01   172.25    0.00000E+00     0.00
  -65.00   350.00     -10.78 -999.99  -10.78    0.00000     0.00  LINEAR    2.75278E-01   175.22    0.00000E+00     0.00
  -60.00   350.00      -8.62 -999.99   -8.62    0.00000     0.00  LINEAR    3.53093E-01   178.81    0.00000E+00     0.00
  -55.00   350.00      -6.95 -999.99   -6.95    0.00000     0.00  LINEAR    4.28083E-01  -177.02    0.00000E+00     0.00
  -50.00   350.00      -5.70 -999.99   -5.70    0.00000     0.00  LINEAR    4.93911E-01  -172.30    0.00000E+00     0.00
  -45.00   350.00      -4.85 -999.99   -4.85    0.00000     0.00  LINEAR    5.44730E-01  -167.05    0.00000E+00     0.00
  -40.00   350.00      -4.37 -999.99   -4.37    0.00000     0.00  LINEAR    5.75614E-01  -161.33    0.00000E+00     0.00
  -35.00   350.00      -4.26 -999.99   -4.26    0.00000     0.00  LINEAR    5.82916E-01  -155.18    0.00000E+00     0.00
  -30.00   350.00      -4.54 -999.99   -4.54    0.00000     0.00  LINEAR    5.64526E-01  -148.64    0.00000E+00     0.00
  -25.00   350.00      -5.26 -999.99   -5.26    0.00000     0.00  LINEAR    5.20010E-01  -141.76    0.00000E+00     0.00
  -20.00   350.00      -6.50 -999.99   -6.50    0.00000     0.00  LINEAR    4.50623E-01  -134.60    0.00000E+00     0.00
  -15.00   350.00      -8.47 -999.99   -8.47    0.00000     0.00  LINEAR    3.59201E-01  -127.21    0.00000E+00     0.00
  -10.00   350.00     -11.62 -999.99  -11.62    0.00000     0.00  LINEAR    2.49959E-01  -119.65    0.00000E+00     0.00
   -5.00   350.00     -17.42 -999.99  -17.42    0.00000     0.00  LINEAR    1.28204E-01  -111.97    0.00000E+00     0.00
    0.00   350.00    -999.99 -999.99 -999.99    0.00000     0.00            0.00000E+00     0.00    0.00000E+00     0.00
 -180.00   355.00    -999.99 -999.99 -999.99    0.00000     0.00            1.51222E-11    75.76    0.00000E+00     0.00
 -175.00   355.00     -17.42 -999.99  -17.42    0.00000     0.00  LINEAR    1.28177E-01  -112.06    0.00000E+00     0.00
 -170.00   355.00     -11.63 -999.99  -11.63    0.00000     0.00  LINEAR    2.49744E-01  -119.83    0.00000E+00     0.00
 -165.00   355.00      -8.49 -999.99   -8.49    0.00000     0.00  LINEAR    3.58492E-01  -127.48    0.00000E+00     0.00
 -160.00   355.00      -6.53 -999.99   -6.53    0.00000     0.00  LINEAR    4.49000E-01  -134.95    0.00000E+00     0.00
 -155.00   355.00      -5.31 -999.99   -5.31    0.00000     0.00  LINEAR    5.16979E-01  -142.20    0.00000E+00     0.00
 -150.00   355.00      -4.62 -999.99   -4.62    0.00000     0.00  LINEAR    5.59565E-01  -149.15    0.00000E+00     0.00
 -145.00   355.00      -4.37 -999.99   -4.37    0.00000     0.00  LINEAR    5.75529E-01  -155.77    0.00000E+00     0.00
 -140.00   355.00      -4.53 -999.99   -4.53    0.00000     0.00  LINEAR    5.65375E-01  -161.99    0.00000E+00     0.00
 -135.00   355.00      -5.07 -999.99   -5.07    0.00000     0.00  LINEAR    5.31321E-01  -167.78    0.00000E+00     0.00
 -130.00   355.00      -6.00 -999.99   -6.00    0.00000     0.00  LINEAR    4.77152E-01  -173.08    0.00000E+00     0.00
 -125.00   355.00      -7.36 -999.99   -7.36    0.00000     0.00  LINEAR    4.07945E-01  -177.86    0.00000E+00     0.00
 -120.00   355.00      -9.21 -999.99   -9.21    0.00000     0.00  LINEAR    3.29699E-01   177.92    0.00000E+00     0.00
 -115.00   355.00     -11.66 -999.99  -11.66    0.00000     0.00  LINEAR    2.48891E-01   174.29    0.00000E+00     0.00
 -110.00   355.00     -14.86 -999.99  -14.86    0.00000     0.00  LINEAR    1.72009E-01   171.29    0.00000E+00     0.00
 -105.00   355.00     -19.14 -999.99  -19.14    0.00000     0.00  LINEAR    1.05085E-01   168.93    0.00000E+00     0.00
 -100.00   355.00     -25.04 -999.99  -25.04    0.00000     0.00  LINEAR    5.32835E-02   167.23    0.00000E+00     0.00
  -95.00   355.00     -33.32 -999.99  -33.32    0.00000     0.00  LINEAR    2.05504E-02   166.20    0.00000E+00     0.00
  -90.00   355.00     -40.15 -999.99  -40.15    0.00000     0.00  LINEAR    9.35877E-03   165.86    0.00000E+00     0.00
  -85.00   355.00     -33.32 -999.99  -33.32    0.00000     0.00  LINEAR    2.05504E-02   166.20    0.00000E+00     0.00
  -80.00   355.00     -25.04 -999.99  -25.04    0.00000     0.00  LINEAR    5.32835E-02   167.23    0.00000E+00     0.00
  -75.00   355.00     -19.14 -999.99  -19.14    0.00000     0.00  LINEAR    1.05085E-01   168.93    0.00000E+00     0.00
  -70.00   355.00     -14.86 -999.99  -14.86    0.00000     0.00  LINEAR    1.72009E-01   171.29    0.00000E+00     0.00
  -65.00   355.00     -11.66 -999.99  -11.66    0.00000     0.00  LINEAR    2.48891E-01   174.29    0.00000E+00     0.00
  -60.00   355.00      -9.21 -999.99   -9.21    0.00000     0.00  LINEAR    3.29699E-01   177.92    0.00000E+00     0.00
  -55.00   355.00      -7.36 -999.99   -7.36    0.00000     0.00  LINEAR    4.07945E-01  -177.86    0.00000E+00     0.00
  -50.00   355.00      -6.00 -999.99   -6.00    0.00000     0.00  LINEAR    4.77152E-01  -173.08    0.00000E+00     0.00
  -45.00   355.00      -5.07 -999.99   -5.07    0.00000     0.00  LINEAR    5.31321E-01  -167.78    0.00000E+00     0.00
  -40.00   355.00      -4.53 -999.99   -4.53    0.00000     0.00  LINEAR    5.65375E-01  -161.99    0.00000E+00     0.00
  -35.00   355.00      -4.37 -999.99   -4.37    0.00000     0.00  LINEAR    5.75529E-01  -155.77    0.00000E+00     0.00
  -30.00   355.00      -4.62 -999.99   -4.62    0.00000     0.00  LINEAR    5.59565E-01  -149.15    0.00000E+00     0.00
  -25.00   355.00      -5.31 -999.99   -5.31    0.00000     0.00  LINEAR    5.16979E-01  -142.20    0.00000E+00     0.00
  -20.00   355.00      -6.53 -999.99   -6.53    0.00000     0.00  LINEAR    4.49000E-01  -134.95    0.00000E+00     0.00
  -15.00   355.00      -8.49 -999.99   -8.49    0.00000     0.00  LINEAR    3.58492E-01  -127.48    0.00000E+00     0.00
  -10.00   355.00     -11.63 -999.99  -11.63    0.00000     0.00  LINEAR    2.49744E-01  -119.83    0.00000E+00     0.00
   -5.00   355.00     -17.42 -999.99  -17.42    0.00000     0.00  LINEAR    1.28177E-01  -112.06    0.00000E+00     0.00
    0.00   355.00    -999.99 -999.99 -999.99    0.00000     0.00            0.00000E+00     0.00    0.00000E+00     0.00
 -180.00   360.00    -999.99 -999.99 -999.99    0.00000     0.00            1.51222E-11    75.76    0.00000E+00     0.00
 -175.00   360.00     -17.42 -999.99  -17.42    0.00000     0.00  LINEAR    1.28168E-01  -112.09    0.00000E+00     0.00
 -170.00   360.00     -11.63 -999.99  -11.63    0.00000     0.00  LINEAR    2.49671E-01  -119.89    0.00000E+00     0.00
 -165.00   360.00      -8.49 -999.99   -8.49    0.00000     0.00  LINEAR    3.58254E-01  -127.57    0.00000E+00     0.00
 -160.00   360.00      -6.54 -999.99   -6.54    0.00000     0.00  LINEAR    4.48454E-01  -135.07    0.00000E+00     0.00
 -155.00   360.00      -5.32 -999.99   -5.32    0.00000     0.00  LINEAR    5.15959E-01  -142.34    0.00000E+00     0.00
 -150.00   360.00      -4.64 -999.99   -4.64    0.00000     0.00  LINEAR    5.57897E-01  -149.32    0.00000E+00     0.00
 -145.00   360.00      -4.41 -999.99   -4.41    0.00000     0.00  LINEAR    5.73047E-01  -155.96    0.00000E+00     0.00
 -140.00   360.00      -4.58 -999.99   -4.58    0.00000     0.00  LINEAR    5.61936E-01  -162.21    0.00000E+00     0.00
 -135.00   360.00      -5.14 -999.99   -5.14    0.00000     0.00  LINEAR    5.26821E-01  -168.02    0.00000E+00     0.00
 -130.00   360.00      -6.11 -999.99   -6.11    0.00000     0.00  LINEAR    4.71531E-01  -173.35    0.00000E+00     0.00
 -125.00   360.00      -7.51 -999.99   -7.51    0.00000     0.00  LINEAR    4.01196E-01  -178.14    0.00000E+00     0.00
 -120.00   360.00      -9.42 -999.99   -9.42    0.00000     0.00  LINEAR    3.21863E-01   177.62    0.00000E+00     0.00
 -115.00   360.00     -11.97 -999.99  -11.97    0.00000     0.00  LINEAR    2.40058E-01   173.98    0.00000E+00     0.00
 -110.00   360.00     -15.37 -999.99  -15.37    0.00000     0.00  LINEAR    1.62308E-01   170.97    0.00000E+00     0.00
 -105.00   360.00     -20.05 -999.99  -20.05    0.00000     0.00  LINEAR    9.46789E-02   168.60    0.00000E+00     0.00
 -100.00   360.00     -27.04 -999.99  -27.04    0.00000     0.00  LINEAR    4.23574E-02   166.89    0.00000E+00     0.00
  -95.00   360.00     -40.20 -999.99  -40.20    0.00000     0.00  LINEAR    9.30623E-03   165.86    0.00000E+00     0.00
  -90.00   360.00     -53.59 -999.99  -53.59    0.00000     0.00  LINEAR    1.99244E-03   -14.48    0.00000E+00     0.00
  -85.00   360.00     -40.20 -999.99  -40.20    0.00000     0.00  LINEAR    9.30623E-03   165.86    0.00000E+00     0.00
  -80.00   360.00     -27.04 -999.99  -27.04    0.00000     0.00  LINEAR    4.23574E-02   166.89    0.00000E+00     0.00
  -75.00   360.00     -20.05 -999.99  -20.05    0.00000     0.00  LINEAR    9.46789E-02   168.60    0.00000E+00     0.00
  -70.00   360.00     -15.37 -999.99  -15.37    0.00000     0.00  LINEAR    1.62308E-01   170.97    0.00000E+00     0.00
  -65.00   360.00     -11.97 -999.99  -11.97    0.00000     0.00  LINEAR    2.40058E-01   173.98    0.00000E+00     0.00
  -60.00   360.00      -9.42 -999.99   -9.42    0.00000     0.00  LINEAR    3.21863E-01   177.62    0.00000E+00     0.00
  -55.00   360.00      -7.51 -999.99   -7.51    0.00000     0.00  LINEAR    4.01196E-01  -178.14    0.00000E+00     0.00
  -50.00   360.00      -6.11 -999.99   -6.11    0.00000     0.00  LINEAR    4.71531E-01  -173.35    0.00000E+00     0.00
  -45.00   360.00      -5.14 -999.99   -5.14    0.00000     0.00  LINEAR    5.26821E-01  -168.02    0.00000E+00     0.00
  -40.00   360.00      -4.58 -999.99   -4.58    0.00000     0.00  LINEAR    5.61936E-01  -162.21    0.00000E+00     0.00
  -35.00   360.00      -4.41 -999.99   -4.41    0.00000     0.00  LINEAR    5.73047E-01  -155.96    0.00000E+00     0.00
  -30.00   360.00      -4.64 -999.99   -4.64    0.00000     0.00  LINEAR    5.57897E-01  -149.32    0.00000E+00     0.00
  -25.00   360.00      -5.32 -999.99   -5.32    0.00000     0.00  LINEAR    5.15959E-01  -142.34    0.00000E+00     0.00
  -20.00   360.00      -6.54 -999.99   -6.54    0.00000     0.00  LINEAR    4.48454E-01  -135.07    0.00000E+00     0.00
  -15.00   360.00      -8.49 -999.99   -8.49    0.00000     0.00  LINEAR    3.58254E-01  -127.57    0.00000E+00     0.00
  -10.00   360.00     -11.63 -999.99  -11.63    0.00000     0.00  LINEAR    2.49671E-01  -119.89    0.00000E+00     0.00
   -5.00   360.00     -17.42 -999.99  -17.42    0.00000     0.00  LINEAR    1.28168E-01  -112.09    0.00000E+00     0.00
    0.00   360.00    -999.99 -999.99 -999.99    0.00000     0.00            0.00000E+00     0.00    0.00000E+00     0.00


   AVERAGE POWER GAIN= 9.98946E-01       SOLID ANGLE USED IN AVERAGING=( 4.0000)*PI STERADIANS.








 ***** DATA CARD NO.  8   EN   0    37    73  1003 -1.80000E+02  0.00000E+00  5.00000E+00  5.00000E+00  0.00000E+00  0.00000E+00

 RUN TIME =     0.266
