1



                                 *********************************************

                                    NUMERICAL ELECTROMAGNETICS CODE (NEC-2D)

                                 *********************************************




                                     - - - - COMMENTS - - - -


                          A vertical dipole array, 2 element                                         
                          		                                                                         
                                                                                                     
                                                                                                     
                                                                                                     
                                                                                                     
                                                                                                     




                                 - - - STRUCTURE SPECIFICATION - - -

                                     COORDINATES MUST BE INPUT IN
                                     METERS OR BE SCALED TO METERS
                                     BEFORE STRUCTURE INPUT IS ENDED


  WIRE                                                                               NO. OF    FIRST  LAST     TAG
  NO.        X1         Y1         Z1          X2         Y2         Z2      RADIUS   SEG.     SEG.   SEG.     NO.
     1    0.00000    0.00000   -4.99667     0.00000    0.00000    4.99667    0.00005     21        1    21       1
     2    9.99335    0.00000   -4.99667     9.99335    0.00000    4.99667    0.00005     21       22    42       2

   TOTAL SEGMENTS USED=   42     NO. SEG. IN A SYMMETRIC CELL=   42     SYMMETRY FLAG=  0


         - MULTIPLE WIRE JUNCTIONS -
 JUNCTION    SEGMENTS  (- FOR END 1, + FOR END 2)
  NONE




                                 - - - - SEGMENTATION DATA - - - -

                                        COORDINATES IN METERS

                         I+ AND I- INDICATE THE SEGMENTS BEFORE AND AFTER I


  SEG.   COORDINATES OF SEG. CENTER     SEG.     ORIENTATION ANGLES    WIRE    CONNECTION DATA   TAG
  NO.       X         Y         Z       LENGTH     ALPHA     BETA      RADIUS    I-   I    I+    NO.
     1   0.00000   0.00000  -4.75874   0.47587   90.00000   0.00000   0.00005     0    1    2      1
     2   0.00000   0.00000  -4.28286   0.47587   90.00000   0.00000   0.00005     1    2    3      1
     3   0.00000   0.00000  -3.80699   0.47587   90.00000   0.00000   0.00005     2    3    4      1
     4   0.00000   0.00000  -3.33112   0.47587   90.00000   0.00000   0.00005     3    4    5      1
     5   0.00000   0.00000  -2.85524   0.47587   90.00000   0.00000   0.00005     4    5    6      1
     6   0.00000   0.00000  -2.37937   0.47587   90.00000   0.00000   0.00005     5    6    7      1
     7   0.00000   0.00000  -1.90350   0.47587   90.00000   0.00000   0.00005     6    7    8      1
     8   0.00000   0.00000  -1.42762   0.47587   90.00000   0.00000   0.00005     7    8    9      1
     9   0.00000   0.00000  -0.95175   0.47587   90.00000   0.00000   0.00005     8    9   10      1
    10   0.00000   0.00000  -0.47587   0.47587   90.00000   0.00000   0.00005     9   10   11      1
    11   0.00000   0.00000   0.00000   0.47587   90.00000   0.00000   0.00005    10   11   12      1
    12   0.00000   0.00000   0.47587   0.47587   90.00000   0.00000   0.00005    11   12   13      1
    13   0.00000   0.00000   0.95175   0.47587   90.00000   0.00000   0.00005    12   13   14      1
    14   0.00000   0.00000   1.42762   0.47587   90.00000   0.00000   0.00005    13   14   15      1
    15   0.00000   0.00000   1.90350   0.47587   90.00000   0.00000   0.00005    14   15   16      1
    16   0.00000   0.00000   2.37937   0.47587   90.00000   0.00000   0.00005    15   16   17      1
    17   0.00000   0.00000   2.85524   0.47587   90.00000   0.00000   0.00005    16   17   18      1
    18   0.00000   0.00000   3.33112   0.47587   90.00000   0.00000   0.00005    17   18   19      1
    19   0.00000   0.00000   3.80699   0.47587   90.00000   0.00000   0.00005    18   19   20      1
    20   0.00000   0.00000   4.28286   0.47587   90.00000   0.00000   0.00005    19   20   21      1
    21   0.00000   0.00000   4.75874   0.47587   90.00000   0.00000   0.00005    20   21    0      1
    22   9.99335   0.00000  -4.75874   0.47587   90.00000   0.00000   0.00005     0   22   23      2
    23   9.99335   0.00000  -4.28286   0.47587   90.00000   0.00000   0.00005    22   23   24      2
    24   9.99335   0.00000  -3.80699   0.47587   90.00000   0.00000   0.00005    23   24   25      2
    25   9.99335   0.00000  -3.33112   0.47587   90.00000   0.00000   0.00005    24   25   26      2
    26   9.99335   0.00000  -2.85524   0.47587   90.00000   0.00000   0.00005    25   26   27      2
    27   9.99335   0.00000  -2.37937   0.47587   90.00000   0.00000   0.00005    26   27   28      2
    28   9.99335   0.00000  -1.90350   0.47587   90.00000   0.00000   0.00005    27   28   29      2
    29   9.99335   0.00000  -1.42762   0.47587   90.00000   0.00000   0.00005    28   29   30      2
    30   9.99335   0.00000  -0.95175   0.47587   90.00000   0.00000   0.00005    29   30   31      2
    31   9.99335   0.00000  -0.47587   0.47587   90.00000   0.00000   0.00005    30   31   32      2
    32   9.99335   0.00000   0.00000   0.47587   90.00000   0.00000   0.00005    31   32   33      2
    33   9.99335   0.00000   0.47587   0.47587   90.00000   0.00000   0.00005    32   33   34      2
    34   9.99335   0.00000   0.95175   0.47587   90.00000   0.00000   0.00005    33   34   35      2
    35   9.99335   0.00000   1.42762   0.47587   90.00000   0.00000   0.00005    34   35   36      2
    36   9.99335   0.00000   1.90350   0.47587   90.00000   0.00000   0.00005    35   36   37      2
    37   9.99335   0.00000   2.37937   0.47587   90.00000   0.00000   0.00005    36   37   38      2
    38   9.99335   0.00000   2.85524   0.47587   90.00000   0.00000   0.00005    37   38   39      2
    39   9.99335   0.00000   3.33112   0.47587   90.00000   0.00000   0.00005    38   39   40      2
    40   9.99335   0.00000   3.80699   0.47587   90.00000   0.00000   0.00005    39   40   41      2
    41   9.99335   0.00000   4.28286   0.47587   90.00000   0.00000   0.00005    40   41   42      2
    42   9.99335   0.00000   4.75874   0.47587   90.00000   0.00000   0.00005    41   42    0      2






 ***** DATA CARD NO.  1   GN  -1     0     0     0  0.00000E+00  0.00000E+00  0.00000E+00  0.00000E+00  0.00000E+00  0.00000E+00
 ***** DATA CARD NO.  2   EK   0     0     0     0  0.00000E+00  0.00000E+00  0.00000E+00  0.00000E+00  0.00000E+00  0.00000E+00
 ***** DATA CARD NO.  3   EX   0     2    11     0  1.00000E+00  0.00000E+00  0.00000E+00  0.00000E+00  0.00000E+00  0.00000E+00
 ***** DATA CARD NO.  4   NT   1    11     2    11  0.00000E+00  0.00000E+00  0.00000E+00  0.00000E+00  0.00000E+00  0.00000E+00
 ***** DATA CARD NO.  5   FR   0     0     0     0  1.50100E+01  0.00000E+00  0.00000E+00  0.00000E+00  0.00000E+00  0.00000E+00
 ***** DATA CARD NO.  6   RP   0    37    73  1003 -1.80000E+02  0.00000E+00  5.00000E+00  5.00000E+00  0.00000E+00  0.00000E+00




                                 - - - - - - FREQUENCY - - - - - -

                                    FREQUENCY= 1.5010E+01 MHZ
                                    WAVELENGTH= 1.9973E+01 METERS




                    APPROXIMATE INTEGRATION EMPLOYED FOR SEGMENTS MORE THAN   1.000 WAVELENGTHS APART

                    THE EXTENDED THIN WIRE KERNEL WILL BE USED



                               - - - STRUCTURE IMPEDANCE LOADING - - -

                                   THIS STRUCTURE IS NOT LOADED



                                  - - - ANTENNA ENVIRONMENT - - -

                                            FREE SPACE



                                - - - MATRIX TIMING - - -

                        FILL=    0.016 SEC.,  FACTOR=    0.000 SEC.



                                            - - - NETWORK DATA - - -

      - FROM -    - TO -                          -  -  ADMITTANCE MATRIX ELEMENTS (MHOS)  -  -
      TAG  SEG.   TAG  SEG.             (ONE,ONE)                   (ONE,TWO)                   (TWO,TWO)
      NO.   NO.   NO.   NO.        REAL          IMAG.         REAL          IMAG.         REAL          IMAG.
        1    11     2    32     0.0000E+00    0.0000E+00    0.0000E+00    0.0000E+00    0.0000E+00    0.0000E+00           



                           - - - STRUCTURE EXCITATION DATA AT NETWORK CONNECTION POINTS - - -

   TAG   SEG.    VOLTAGE (VOLTS)         CURRENT (AMPS)         IMPEDANCE (OHMS)        ADMITTANCE (MHOS)      POWER
   NO.   NO.    REAL        IMAG.       REAL        IMAG.       REAL        IMAG.       REAL        IMAG.     (WATTS)
     1    11-3.15963E-01-2.11816E-01 2.67982E-17 1.08276E-18-1.20901E+16-7.41563E+15-6.01014E-17 3.68642E-17-4.34830E-18
     2    32 1.00000E+00 0.00000E+00 9.59160E-03-5.64290E-03 7.74508E+01 4.55657E+01 9.59160E-03-5.64290E-03 4.79580E-03



                                          - - - ANTENNA INPUT PARAMETERS - - -

   TAG   SEG.    VOLTAGE (VOLTS)         CURRENT (AMPS)         IMPEDANCE (OHMS)        ADMITTANCE (MHOS)      POWER
   NO.   NO.    REAL        IMAG.       REAL        IMAG.       REAL        IMAG.       REAL        IMAG.     (WATTS)
     2    32 1.00000E+00 0.00000E+00 9.59160E-03-5.64290E-03 7.74508E+01 4.55657E+01 9.59160E-03-5.64290E-03 4.79580E-03



                             - - - CURRENTS AND LOCATION - - -

                                 DISTANCES IN WAVELENGTHS


  SEG.  TAG    COORD. OF SEG. CENTER     SEG.            - - - CURRENT (AMPS) - - -
  NO.   NO.     X        Y        Z      LENGTH     REAL        IMAG.       MAG.        PHASE
     1    1   0.0000   0.0000  -0.2383  0.02383  -1.1855E-05  1.9190E-05  2.2557E-05  121.707
     2    1   0.0000   0.0000  -0.2144  0.02383  -3.1648E-05  5.0629E-05  5.9707E-05  122.009
     3    1   0.0000   0.0000  -0.1906  0.02383  -4.7170E-05  7.4643E-05  8.8298E-05  122.291
     4    1   0.0000   0.0000  -0.1668  0.02383  -5.8376E-05  9.1453E-05  1.0850E-04  122.551
     5    1   0.0000   0.0000  -0.1430  0.02383  -6.4942E-05  1.0081E-04  1.1991E-04  122.791
     6    1   0.0000   0.0000  -0.1191  0.02383  -6.6568E-05  1.0247E-04  1.2219E-04  123.010
     7    1   0.0000   0.0000  -0.0953  0.02383  -6.3023E-05  9.6270E-05  1.1506E-04  123.211
     8    1   0.0000   0.0000  -0.0715  0.02383  -5.4145E-05  8.2142E-05  9.8382E-05  123.391
     9    1   0.0000   0.0000  -0.0477  0.02383  -3.9793E-05  6.0004E-05  7.2000E-05  123.552
    10    1   0.0000   0.0000  -0.0238  0.02383  -1.9569E-05  2.9357E-05  3.5281E-05  123.687
    11    1   0.0000   0.0000   0.0000  0.02383   2.6798E-17  1.0828E-18  2.6820E-17    2.314
    12    1   0.0000   0.0000   0.0238  0.02383  -1.9569E-05  2.9357E-05  3.5281E-05  123.687
    13    1   0.0000   0.0000   0.0477  0.02383  -3.9793E-05  6.0004E-05  7.2000E-05  123.552
    14    1   0.0000   0.0000   0.0715  0.02383  -5.4145E-05  8.2142E-05  9.8382E-05  123.391
    15    1   0.0000   0.0000   0.0953  0.02383  -6.3023E-05  9.6270E-05  1.1506E-04  123.211
    16    1   0.0000   0.0000   0.1191  0.02383  -6.6568E-05  1.0247E-04  1.2219E-04  123.010
    17    1   0.0000   0.0000   0.1430  0.02383  -6.4942E-05  1.0081E-04  1.1991E-04  122.791
    18    1   0.0000   0.0000   0.1668  0.02383  -5.8376E-05  9.1453E-05  1.0850E-04  122.551
    19    1   0.0000   0.0000   0.1906  0.02383  -4.7170E-05  7.4643E-05  8.8298E-05  122.291
    20    1   0.0000   0.0000   0.2144  0.02383  -3.1648E-05  5.0629E-05  5.9707E-05  122.009
    21    1   0.0000   0.0000   0.2383  0.02383  -1.1855E-05  1.9190E-05  2.2557E-05  121.707
    22    2   0.5003   0.0000  -0.2383  0.02383   8.0047E-04 -5.3066E-04  9.6039E-04  -33.542
    23    2   0.5003   0.0000  -0.2144  0.02383   2.2760E-03 -1.4970E-03  2.7242E-03  -33.334
    24    2   0.5003   0.0000  -0.1906  0.02383   3.6513E-03 -2.3816E-03  4.3593E-03  -33.115
    25    2   0.5003   0.0000  -0.1668  0.02383   4.9288E-03 -3.1863E-03  5.8690E-03  -32.882
    26    2   0.5003   0.0000  -0.1430  0.02383   6.0899E-03 -3.8993E-03  7.2313E-03  -32.631
    27    2   0.5003   0.0000  -0.1191  0.02383   7.1139E-03 -4.5075E-03  8.4217E-03  -32.359
    28    2   0.5003   0.0000  -0.0953  0.02383   7.9813E-03 -4.9988E-03  9.4175E-03  -32.060
    29    2   0.5003   0.0000  -0.0715  0.02383   8.6749E-03 -5.3627E-03  1.0199E-02  -31.724
    30    2   0.5003   0.0000  -0.0477  0.02383   9.1806E-03 -5.5906E-03  1.0749E-02  -31.340
    31    2   0.5003   0.0000  -0.0238  0.02383   9.4883E-03 -5.6750E-03  1.1056E-02  -30.884
    32    2   0.5003   0.0000   0.0000  0.02383   9.5916E-03 -5.6429E-03  1.1128E-02  -30.469
    33    2   0.5003   0.0000   0.0238  0.02383   9.4883E-03 -5.6750E-03  1.1056E-02  -30.884
    34    2   0.5003   0.0000   0.0477  0.02383   9.1806E-03 -5.5906E-03  1.0749E-02  -31.340
    35    2   0.5003   0.0000   0.0715  0.02383   8.6749E-03 -5.3627E-03  1.0199E-02  -31.724
    36    2   0.5003   0.0000   0.0953  0.02383   7.9813E-03 -4.9988E-03  9.4175E-03  -32.060
    37    2   0.5003   0.0000   0.1191  0.02383   7.1139E-03 -4.5075E-03  8.4217E-03  -32.359
    38    2   0.5003   0.0000   0.1430  0.02383   6.0899E-03 -3.8993E-03  7.2313E-03  -32.631
    39    2   0.5003   0.0000   0.1668  0.02383   4.9288E-03 -3.1863E-03  5.8690E-03  -32.882
    40    2   0.5003   0.0000   0.1906  0.02383   3.6513E-03 -2.3816E-03  4.3593E-03  -33.115
    41    2   0.5003   0.0000   0.2144  0.02383   2.2760E-03 -1.4970E-03  2.7242E-03  -33.334
    42    2   0.5003   0.0000   0.2383  0.02383   8.0047E-04 -5.3066E-04  9.6039E-04  -33.542



                                        - - - POWER BUDGET - - -

                                           INPUT POWER   = 4.7958E-03 WATTS
                                           RADIATED POWER= 4.7958E-03 WATTS
                                           STRUCTURE LOSS= 0.0000E+00 WATTS
                                           NETWORK LOSS  = 4.3368E-18 WATTS
                                           EFFICIENCY    = 100.00 PERCENT



                                                - - - RADIATION PATTERNS - - -

  - - ANGLES - -           - POWER GAINS -       - - - POLARIZATION - - -    - - - E(THETA) - - -    - - - E(PHI) - - -
  THETA     PHI        VERT.   HOR.    TOTAL      AXIAL     TILT   SENSE     MAGNITUDE    PHASE      MAGNITUDE    PHASE 
 DEGREES  DEGREES       DB      DB      DB        RATIO     DEG.              VOLTS/M    DEGREES      VOLTS/M    DEGREES
 -180.00     0.00    -999.99 -999.99 -999.99    0.00000     0.00            5.41437E-12    58.55    0.00000E+00     0.00
 -175.00     0.00     -21.28 -999.99  -21.28    0.00000     0.00  LINEAR    4.62875E-02  -137.29    0.00000E+00     0.00
 -170.00     0.00     -15.24 -999.99  -15.24    0.00000     0.00  LINEAR    9.27497E-02  -153.02    0.00000E+00     0.00
 -165.00     0.00     -11.69 -999.99  -11.69    0.00000     0.00  LINEAR    1.39633E-01  -168.51    0.00000E+00     0.00
 -160.00     0.00      -9.15 -999.99   -9.15    0.00000     0.00  LINEAR    1.87113E-01   176.36    0.00000E+00     0.00
 -155.00     0.00      -7.16 -999.99   -7.16    0.00000     0.00  LINEAR    2.35254E-01   161.73    0.00000E+00     0.00
 -150.00     0.00      -5.52 -999.99   -5.52    0.00000     0.00  LINEAR    2.83977E-01   147.69    0.00000E+00     0.00
 -145.00     0.00      -4.14 -999.99   -4.14    0.00000     0.00  LINEAR    3.33040E-01   134.37    0.00000E+00     0.00
 -140.00     0.00      -2.95 -999.99   -2.95    0.00000     0.00  LINEAR    3.82025E-01   121.87    0.00000E+00     0.00
 -135.00     0.00      -1.91 -999.99   -1.91    0.00000     0.00  LINEAR    4.30342E-01   110.27    0.00000E+00     0.00
 -130.00     0.00      -1.01 -999.99   -1.01    0.00000     0.00  LINEAR    4.77247E-01    99.66    0.00000E+00     0.00
 -125.00     0.00      -0.24 -999.99   -0.24    0.00000     0.00  LINEAR    5.21871E-01    90.12    0.00000E+00     0.00
 -120.00     0.00       0.43 -999.99    0.43    0.00000     0.00  LINEAR    5.63265E-01    81.70    0.00000E+00     0.00
 -115.00     0.00       0.98 -999.99    0.98    0.00000     0.00  LINEAR    6.00442E-01    74.48    0.00000E+00     0.00
 -110.00     0.00       1.43 -999.99    1.43    0.00000     0.00  LINEAR    6.32439E-01    68.50    0.00000E+00     0.00
 -105.00     0.00       1.78 -999.99    1.78    0.00000     0.00  LINEAR    6.58370E-01    63.81    0.00000E+00     0.00
 -100.00     0.00       2.03 -999.99    2.03    0.00000     0.00  LINEAR    6.77477E-01    60.43    0.00000E+00     0.00
  -95.00     0.00       2.18 -999.99    2.18    0.00000     0.00  LINEAR    6.89184E-01    58.40    0.00000E+00     0.00
  -90.00     0.00       2.23 -999.99    2.23    0.00000     0.00  LINEAR    6.93128E-01    57.71    0.00000E+00     0.00
  -85.00     0.00       2.18 -999.99    2.18    0.00000     0.00  LINEAR    6.89184E-01    58.40    0.00000E+00     0.00
  -80.00     0.00       2.03 -999.99    2.03    0.00000     0.00  LINEAR    6.77477E-01    60.43    0.00000E+00     0.00
  -75.00     0.00       1.78 -999.99    1.78    0.00000     0.00  LINEAR    6.58370E-01    63.81    0.00000E+00     0.00
  -70.00     0.00       1.43 -999.99    1.43    0.00000     0.00  LINEAR    6.32439E-01    68.50    0.00000E+00     0.00
  -65.00     0.00       0.98 -999.99    0.98    0.00000     0.00  LINEAR    6.00442E-01    74.48    0.00000E+00     0.00
  -60.00     0.00       0.43 -999.99    0.43    0.00000     0.00  LINEAR    5.63265E-01    81.70    0.00000E+00     0.00
  -55.00     0.00      -0.24 -999.99   -0.24    0.00000     0.00  LINEAR    5.21871E-01    90.12    0.00000E+00     0.00
  -50.00     0.00      -1.01 -999.99   -1.01    0.00000     0.00  LINEAR    4.77247E-01    99.66    0.00000E+00     0.00
  -45.00     0.00      -1.91 -999.99   -1.91    0.00000     0.00  LINEAR    4.30342E-01   110.27    0.00000E+00     0.00
  -40.00     0.00      -2.95 -999.99   -2.95    0.00000     0.00  LINEAR    3.82025E-01   121.87    0.00000E+00     0.00
  -35.00     0.00      -4.14 -999.99   -4.14    0.00000     0.00  LINEAR    3.33040E-01   134.37    0.00000E+00     0.00
  -30.00     0.00      -5.52 -999.99   -5.52    0.00000     0.00  LINEAR    2.83977E-01   147.69    0.00000E+00     0.00
  -25.00     0.00      -7.16 -999.99   -7.16    0.00000     0.00  LINEAR    2.35254E-01   161.73    0.00000E+00     0.00
  -20.00     0.00      -9.15 -999.99   -9.15    0.00000     0.00  LINEAR    1.87113E-01   176.36    0.00000E+00     0.00
  -15.00     0.00     -11.69 -999.99  -11.69    0.00000     0.00  LINEAR    1.39633E-01  -168.51    0.00000E+00     0.00
  -10.00     0.00     -15.24 -999.99  -15.24    0.00000     0.00  LINEAR    9.27497E-02  -153.02    0.00000E+00     0.00
   -5.00     0.00     -21.28 -999.99  -21.28    0.00000     0.00  LINEAR    4.62875E-02  -137.29    0.00000E+00     0.00
    0.00     0.00    -999.99 -999.99 -999.99    0.00000     0.00            0.00000E+00     0.00    0.00000E+00     0.00
 -180.00     5.00    -999.99 -999.99 -999.99    0.00000     0.00            5.41437E-12    58.55    0.00000E+00     0.00
 -175.00     5.00     -21.28 -999.99  -21.28    0.00000     0.00  LINEAR    4.62876E-02  -137.23    0.00000E+00     0.00
 -170.00     5.00     -15.24 -999.99  -15.24    0.00000     0.00  LINEAR    9.27495E-02  -152.90    0.00000E+00     0.00
 -165.00     5.00     -11.69 -999.99  -11.69    0.00000     0.00  LINEAR    1.39632E-01  -168.33    0.00000E+00     0.00
 -160.00     5.00      -9.15 -999.99   -9.15    0.00000     0.00  LINEAR    1.87109E-01   176.60    0.00000E+00     0.00
 -155.00     5.00      -7.16 -999.99   -7.16    0.00000     0.00  LINEAR    2.35245E-01   162.02    0.00000E+00     0.00
 -150.00     5.00      -5.52 -999.99   -5.52    0.00000     0.00  LINEAR    2.83962E-01   148.04    0.00000E+00     0.00
 -145.00     5.00      -4.14 -999.99   -4.14    0.00000     0.00  LINEAR    3.33018E-01   134.77    0.00000E+00     0.00
 -140.00     5.00      -2.95 -999.99   -2.95    0.00000     0.00  LINEAR    3.81996E-01   122.31    0.00000E+00     0.00
 -135.00     5.00      -1.91 -999.99   -1.91    0.00000     0.00  LINEAR    4.30306E-01   110.75    0.00000E+00     0.00
 -130.00     5.00      -1.01 -999.99   -1.01    0.00000     0.00  LINEAR    4.77205E-01   100.18    0.00000E+00     0.00
 -125.00     5.00      -0.24 -999.99   -0.24    0.00000     0.00  LINEAR    5.21827E-01    90.67    0.00000E+00     0.00
 -120.00     5.00       0.43 -999.99    0.43    0.00000     0.00  LINEAR    5.63218E-01    82.29    0.00000E+00     0.00
 -115.00     5.00       0.98 -999.99    0.98    0.00000     0.00  LINEAR    6.00396E-01    75.10    0.00000E+00     0.00
 -110.00     5.00       1.43 -999.99    1.43    0.00000     0.00  LINEAR    6.32394E-01    69.14    0.00000E+00     0.00
 -105.00     5.00       1.78 -999.99    1.78    0.00000     0.00  LINEAR    6.58327E-01    64.47    0.00000E+00     0.00
 -100.00     5.00       2.03 -999.99    2.03    0.00000     0.00  LINEAR    6.77437E-01    61.10    0.00000E+00     0.00
  -95.00     5.00       2.18 -999.99    2.18    0.00000     0.00  LINEAR    6.89145E-01    59.07    0.00000E+00     0.00
  -90.00     5.00       2.23 -999.99    2.23    0.00000     0.00  LINEAR    6.93089E-01    58.39    0.00000E+00     0.00
  -85.00     5.00       2.18 -999.99    2.18    0.00000     0.00  LINEAR    6.89145E-01    59.07    0.00000E+00     0.00
  -80.00     5.00       2.03 -999.99    2.03    0.00000     0.00  LINEAR    6.77437E-01    61.10    0.00000E+00     0.00
  -75.00     5.00       1.78 -999.99    1.78    0.00000     0.00  LINEAR    6.58327E-01    64.47    0.00000E+00     0.00
  -70.00     5.00       1.43 -999.99    1.43    0.00000     0.00  LINEAR    6.32394E-01    69.14    0.00000E+00     0.00
  -65.00     5.00       0.98 -999.99    0.98    0.00000     0.00  LINEAR    6.00396E-01    75.10    0.00000E+00     0.00
  -60.00     5.00       0.43 -999.99    0.43    0.00000     0.00  LINEAR    5.63218E-01    82.29    0.00000E+00     0.00
  -55.00     5.00      -0.24 -999.99   -0.24    0.00000     0.00  LINEAR    5.21827E-01    90.67    0.00000E+00     0.00
  -50.00     5.00      -1.01 -999.99   -1.01    0.00000     0.00  LINEAR    4.77205E-01   100.18    0.00000E+00     0.00
  -45.00     5.00      -1.91 -999.99   -1.91    0.00000     0.00  LINEAR    4.30306E-01   110.75    0.00000E+00     0.00
  -40.00     5.00      -2.95 -999.99   -2.95    0.00000     0.00  LINEAR    3.81996E-01   122.31    0.00000E+00     0.00
  -35.00     5.00      -4.14 -999.99   -4.14    0.00000     0.00  LINEAR    3.33018E-01   134.77    0.00000E+00     0.00
  -30.00     5.00      -5.52 -999.99   -5.52    0.00000     0.00  LINEAR    2.83962E-01   148.04    0.00000E+00     0.00
  -25.00     5.00      -7.16 -999.99   -7.16    0.00000     0.00  LINEAR    2.35245E-01   162.02    0.00000E+00     0.00
  -20.00     5.00      -9.15 -999.99   -9.15    0.00000     0.00  LINEAR    1.87109E-01   176.60    0.00000E+00     0.00
  -15.00     5.00     -11.69 -999.99  -11.69    0.00000     0.00  LINEAR    1.39632E-01  -168.33    0.00000E+00     0.00
  -10.00     5.00     -15.24 -999.99  -15.24    0.00000     0.00  LINEAR    9.27495E-02  -152.90    0.00000E+00     0.00
   -5.00     5.00     -21.28 -999.99  -21.28    0.00000     0.00  LINEAR    4.62876E-02  -137.23    0.00000E+00     0.00
    0.00     5.00    -999.99 -999.99 -999.99    0.00000     0.00            0.00000E+00     0.00    0.00000E+00     0.00
 -180.00    10.00    -999.99 -999.99 -999.99    0.00000     0.00            5.41437E-12    58.55    0.00000E+00     0.00
 -175.00    10.00     -21.28 -999.99  -21.28    0.00000     0.00  LINEAR    4.62878E-02  -137.05    0.00000E+00     0.00
 -170.00    10.00     -15.24 -999.99  -15.24    0.00000     0.00  LINEAR    9.27489E-02  -152.54    0.00000E+00     0.00
 -165.00    10.00     -11.69 -999.99  -11.69    0.00000     0.00  LINEAR    1.39627E-01  -167.80    0.00000E+00     0.00
 -160.00    10.00      -9.15 -999.99   -9.15    0.00000     0.00  LINEAR    1.87096E-01   177.31    0.00000E+00     0.00
 -155.00    10.00      -7.16 -999.99   -7.16    0.00000     0.00  LINEAR    2.35218E-01   162.89    0.00000E+00     0.00
 -150.00    10.00      -5.52 -999.99   -5.52    0.00000     0.00  LINEAR    2.83917E-01   149.07    0.00000E+00     0.00
 -145.00    10.00      -4.14 -999.99   -4.14    0.00000     0.00  LINEAR    3.32952E-01   135.95    0.00000E+00     0.00
 -140.00    10.00      -2.95 -999.99   -2.95    0.00000     0.00  LINEAR    3.81908E-01   123.63    0.00000E+00     0.00
 -135.00    10.00      -1.91 -999.99   -1.91    0.00000     0.00  LINEAR    4.30198E-01   112.20    0.00000E+00     0.00
 -130.00    10.00      -1.02 -999.99   -1.02    0.00000     0.00  LINEAR    4.77081E-01   101.75    0.00000E+00     0.00
 -125.00    10.00      -0.24 -999.99   -0.24    0.00000     0.00  LINEAR    5.21691E-01    92.35    0.00000E+00     0.00
 -120.00    10.00       0.42 -999.99    0.42    0.00000     0.00  LINEAR    5.63077E-01    84.06    0.00000E+00     0.00
 -115.00    10.00       0.98 -999.99    0.98    0.00000     0.00  LINEAR    6.00254E-01    76.94    0.00000E+00     0.00
 -110.00    10.00       1.43 -999.99    1.43    0.00000     0.00  LINEAR    6.32257E-01    71.05    0.00000E+00     0.00
 -105.00    10.00       1.78 -999.99    1.78    0.00000     0.00  LINEAR    6.58195E-01    66.43    0.00000E+00     0.00
 -100.00    10.00       2.03 -999.99    2.03    0.00000     0.00  LINEAR    6.77311E-01    63.10    0.00000E+00     0.00
  -95.00    10.00       2.18 -999.99    2.18    0.00000     0.00  LINEAR    6.89023E-01    61.09    0.00000E+00     0.00
  -90.00    10.00       2.23 -999.99    2.23    0.00000     0.00  LINEAR    6.92969E-01    60.42    0.00000E+00     0.00
  -85.00    10.00       2.18 -999.99    2.18    0.00000     0.00  LINEAR    6.89023E-01    61.09    0.00000E+00     0.00
  -80.00    10.00       2.03 -999.99    2.03    0.00000     0.00  LINEAR    6.77311E-01    63.10    0.00000E+00     0.00
  -75.00    10.00       1.78 -999.99    1.78    0.00000     0.00  LINEAR    6.58195E-01    66.43    0.00000E+00     0.00
  -70.00    10.00       1.43 -999.99    1.43    0.00000     0.00  LINEAR    6.32257E-01    71.05    0.00000E+00     0.00
  -65.00    10.00       0.98 -999.99    0.98    0.00000     0.00  LINEAR    6.00254E-01    76.94    0.00000E+00     0.00
  -60.00    10.00       0.42 -999.99    0.42    0.00000     0.00  LINEAR    5.63077E-01    84.06    0.00000E+00     0.00
  -55.00    10.00      -0.24 -999.99   -0.24    0.00000     0.00  LINEAR    5.21691E-01    92.35    0.00000E+00     0.00
  -50.00    10.00      -1.02 -999.99   -1.02    0.00000     0.00  LINEAR    4.77081E-01   101.75    0.00000E+00     0.00
  -45.00    10.00      -1.91 -999.99   -1.91    0.00000     0.00  LINEAR    4.30198E-01   112.20    0.00000E+00     0.00
  -40.00    10.00      -2.95 -999.99   -2.95    0.00000     0.00  LINEAR    3.81908E-01   123.63    0.00000E+00     0.00
  -35.00    10.00      -4.14 -999.99   -4.14    0.00000     0.00  LINEAR    3.32952E-01   135.95    0.00000E+00     0.00
  -30.00    10.00      -5.52 -999.99   -5.52    0.00000     0.00  LINEAR    2.83917E-01   149.07    0.00000E+00     0.00
  -25.00    10.00      -7.16 -999.99   -7.16    0.00000     0.00  LINEAR    2.35218E-01   162.89    0.00000E+00     0.00
  -20.00    10.00      -9.15 -999.99   -9.15    0.00000     0.00  LINEAR    1.87096E-01   177.31    0.00000E+00     0.00
  -15.00    10.00     -11.69 -999.99  -11.69    0.00000     0.00  LINEAR    1.39627E-01  -167.80    0.00000E+00     0.00
  -10.00    10.00     -15.24 -999.99  -15.24    0.00000     0.00  LINEAR    9.27489E-02  -152.54    0.00000E+00     0.00
   -5.00    10.00     -21.28 -999.99  -21.28    0.00000     0.00  LINEAR    4.62878E-02  -137.05    0.00000E+00     0.00
    0.00    10.00    -999.99 -999.99 -999.99    0.00000     0.00            0.00000E+00     0.00    0.00000E+00     0.00
 -180.00    15.00    -999.99 -999.99 -999.99    0.00000     0.00            5.41437E-12    58.55    0.00000E+00     0.00
 -175.00    15.00     -21.28 -999.99  -21.28    0.00000     0.00  LINEAR    4.62882E-02  -136.75    0.00000E+00     0.00
 -170.00    15.00     -15.24 -999.99  -15.24    0.00000     0.00  LINEAR    9.27481E-02  -151.94    0.00000E+00     0.00
 -165.00    15.00     -11.69 -999.99  -11.69    0.00000     0.00  LINEAR    1.39620E-01  -166.91    0.00000E+00     0.00
 -160.00    15.00      -9.15 -999.99   -9.15    0.00000     0.00  LINEAR    1.87075E-01   178.48    0.00000E+00     0.00
 -155.00    15.00      -7.16 -999.99   -7.16    0.00000     0.00  LINEAR    2.35175E-01   164.34    0.00000E+00     0.00
 -150.00    15.00      -5.53 -999.99   -5.53    0.00000     0.00  LINEAR    2.83844E-01   150.78    0.00000E+00     0.00
 -145.00    15.00      -4.14 -999.99   -4.14    0.00000     0.00  LINEAR    3.32843E-01   137.90    0.00000E+00     0.00
 -140.00    15.00      -2.95 -999.99   -2.95    0.00000     0.00  LINEAR    3.81761E-01   125.82    0.00000E+00     0.00
 -135.00    15.00      -1.92 -999.99   -1.92    0.00000     0.00  LINEAR    4.30017E-01   114.60    0.00000E+00     0.00
 -130.00    15.00      -1.02 -999.99   -1.02    0.00000     0.00  LINEAR    4.76871E-01   104.35    0.00000E+00     0.00
 -125.00    15.00      -0.24 -999.99   -0.24    0.00000     0.00  LINEAR    5.21460E-01    95.12    0.00000E+00     0.00
 -120.00    15.00       0.42 -999.99    0.42    0.00000     0.00  LINEAR    5.62835E-01    86.98    0.00000E+00     0.00
 -115.00    15.00       0.98 -999.99    0.98    0.00000     0.00  LINEAR    6.00009E-01    80.00    0.00000E+00     0.00
 -110.00    15.00       1.43 -999.99    1.43    0.00000     0.00  LINEAR    6.32015E-01    74.22    0.00000E+00     0.00
 -105.00    15.00       1.78 -999.99    1.78    0.00000     0.00  LINEAR    6.57961E-01    69.68    0.00000E+00     0.00
 -100.00    15.00       2.03 -999.99    2.03    0.00000     0.00  LINEAR    6.77084E-01    66.42    0.00000E+00     0.00
  -95.00    15.00       2.17 -999.99    2.17    0.00000     0.00  LINEAR    6.88803E-01    64.45    0.00000E+00     0.00
  -90.00    15.00       2.22 -999.99    2.22    0.00000     0.00  LINEAR    6.92750E-01    63.79    0.00000E+00     0.00
  -85.00    15.00       2.17 -999.99    2.17    0.00000     0.00  LINEAR    6.88803E-01    64.45    0.00000E+00     0.00
  -80.00    15.00       2.03 -999.99    2.03    0.00000     0.00  LINEAR    6.77084E-01    66.42    0.00000E+00     0.00
  -75.00    15.00       1.78 -999.99    1.78    0.00000     0.00  LINEAR    6.57961E-01    69.68    0.00000E+00     0.00
  -70.00    15.00       1.43 -999.99    1.43    0.00000     0.00  LINEAR    6.32015E-01    74.22    0.00000E+00     0.00
  -65.00    15.00       0.98 -999.99    0.98    0.00000     0.00  LINEAR    6.00009E-01    80.00    0.00000E+00     0.00
  -60.00    15.00       0.42 -999.99    0.42    0.00000     0.00  LINEAR    5.62835E-01    86.98    0.00000E+00     0.00
  -55.00    15.00      -0.24 -999.99   -0.24    0.00000     0.00  LINEAR    5.21460E-01    95.12    0.00000E+00     0.00
  -50.00    15.00      -1.02 -999.99   -1.02    0.00000     0.00  LINEAR    4.76871E-01   104.35    0.00000E+00     0.00
  -45.00    15.00      -1.92 -999.99   -1.92    0.00000     0.00  LINEAR    4.30017E-01   114.60    0.00000E+00     0.00
  -40.00    15.00      -2.95 -999.99   -2.95    0.00000     0.00  LINEAR    3.81761E-01   125.82    0.00000E+00     0.00
  -35.00    15.00      -4.14 -999.99   -4.14    0.00000     0.00  LINEAR    3.32843E-01   137.90    0.00000E+00     0.00
  -30.00    15.00      -5.53 -999.99   -5.53    0.00000     0.00  LINEAR    2.83844E-01   150.78    0.00000E+00     0.00
  -25.00    15.00      -7.16 -999.99   -7.16    0.00000     0.00  LINEAR    2.35175E-01   164.34    0.00000E+00     0.00
  -20.00    15.00      -9.15 -999.99   -9.15    0.00000     0.00  LINEAR    1.87075E-01   178.48    0.00000E+00     0.00
  -15.00    15.00     -11.69 -999.99  -11.69    0.00000     0.00  LINEAR    1.39620E-01  -166.91    0.00000E+00     0.00
  -10.00    15.00     -15.24 -999.99  -15.24    0.00000     0.00  LINEAR    9.27481E-02  -151.94    0.00000E+00     0.00
   -5.00    15.00     -21.28 -999.99  -21.28    0.00000     0.00  LINEAR    4.62882E-02  -136.75    0.00000E+00     0.00
    0.00    15.00    -999.99 -999.99 -999.99    0.00000     0.00            0.00000E+00     0.00    0.00000E+00     0.00
 -180.00    20.00    -999.99 -999.99 -999.99    0.00000     0.00            5.41437E-12    58.55    0.00000E+00     0.00
 -175.00    20.00     -21.28 -999.99  -21.28    0.00000     0.00  LINEAR    4.62888E-02  -136.33    0.00000E+00     0.00
 -170.00    20.00     -15.24 -999.99  -15.24    0.00000     0.00  LINEAR    9.27471E-02  -151.12    0.00000E+00     0.00
 -165.00    20.00     -11.69 -999.99  -11.69    0.00000     0.00  LINEAR    1.39611E-01  -165.67    0.00000E+00     0.00
 -160.00    20.00      -9.15 -999.99   -9.15    0.00000     0.00  LINEAR    1.87047E-01  -179.89    0.00000E+00     0.00
 -155.00    20.00      -7.16 -999.99   -7.16    0.00000     0.00  LINEAR    2.35116E-01   166.35    0.00000E+00     0.00
 -150.00    20.00      -5.53 -999.99   -5.53    0.00000     0.00  LINEAR    2.83743E-01   153.15    0.00000E+00     0.00
 -145.00    20.00      -4.15 -999.99   -4.15    0.00000     0.00  LINEAR    3.32693E-01   140.62    0.00000E+00     0.00
 -140.00    20.00      -2.96 -999.99   -2.96    0.00000     0.00  LINEAR    3.81559E-01   128.85    0.00000E+00     0.00
 -135.00    20.00      -1.92 -999.99   -1.92    0.00000     0.00  LINEAR    4.29763E-01   117.94    0.00000E+00     0.00
 -130.00    20.00      -1.02 -999.99   -1.02    0.00000     0.00  LINEAR    4.76574E-01   107.95    0.00000E+00     0.00
 -125.00    20.00      -0.25 -999.99   -0.25    0.00000     0.00  LINEAR    5.21130E-01    98.97    0.00000E+00     0.00
 -120.00    20.00       0.42 -999.99    0.42    0.00000     0.00  LINEAR    5.62484E-01    91.05    0.00000E+00     0.00
 -115.00    20.00       0.97 -999.99    0.97    0.00000     0.00  LINEAR    5.99648E-01    84.26    0.00000E+00     0.00
 -110.00    20.00       1.42 -999.99    1.42    0.00000     0.00  LINEAR    6.31654E-01    78.63    0.00000E+00     0.00
 -105.00    20.00       1.77 -999.99    1.77    0.00000     0.00  LINEAR    6.57604E-01    74.21    0.00000E+00     0.00
 -100.00    20.00       2.02 -999.99    2.02    0.00000     0.00  LINEAR    6.76735E-01    71.03    0.00000E+00     0.00
  -95.00    20.00       2.17 -999.99    2.17    0.00000     0.00  LINEAR    6.88460E-01    69.12    0.00000E+00     0.00
  -90.00    20.00       2.22 -999.99    2.22    0.00000     0.00  LINEAR    6.92410E-01    68.48    0.00000E+00     0.00
  -85.00    20.00       2.17 -999.99    2.17    0.00000     0.00  LINEAR    6.88460E-01    69.12    0.00000E+00     0.00
  -80.00    20.00       2.02 -999.99    2.02    0.00000     0.00  LINEAR    6.76735E-01    71.03    0.00000E+00     0.00
  -75.00    20.00       1.77 -999.99    1.77    0.00000     0.00  LINEAR    6.57604E-01    74.21    0.00000E+00     0.00
  -70.00    20.00       1.42 -999.99    1.42    0.00000     0.00  LINEAR    6.31654E-01    78.63    0.00000E+00     0.00
  -65.00    20.00       0.97 -999.99    0.97    0.00000     0.00  LINEAR    5.99648E-01    84.26    0.00000E+00     0.00
  -60.00    20.00       0.42 -999.99    0.42    0.00000     0.00  LINEAR    5.62484E-01    91.05    0.00000E+00     0.00
  -55.00    20.00      -0.25 -999.99   -0.25    0.00000     0.00  LINEAR    5.21130E-01    98.97    0.00000E+00     0.00
  -50.00    20.00      -1.02 -999.99   -1.02    0.00000     0.00  LINEAR    4.76574E-01   107.95    0.00000E+00     0.00
  -45.00    20.00      -1.92 -999.99   -1.92    0.00000     0.00  LINEAR    4.29763E-01   117.94    0.00000E+00     0.00
  -40.00    20.00      -2.96 -999.99   -2.96    0.00000     0.00  LINEAR    3.81559E-01   128.85    0.00000E+00     0.00
  -35.00    20.00      -4.15 -999.99   -4.15    0.00000     0.00  LINEAR    3.32693E-01   140.62    0.00000E+00     0.00
  -30.00    20.00      -5.53 -999.99   -5.53    0.00000     0.00  LINEAR    2.83743E-01   153.15    0.00000E+00     0.00
  -25.00    20.00      -7.16 -999.99   -7.16    0.00000     0.00  LINEAR    2.35116E-01   166.35    0.00000E+00     0.00
  -20.00    20.00      -9.15 -999.99   -9.15    0.00000     0.00  LINEAR    1.87047E-01  -179.89    0.00000E+00     0.00
  -15.00    20.00     -11.69 -999.99  -11.69    0.00000     0.00  LINEAR    1.39611E-01  -165.67    0.00000E+00     0.00
  -10.00    20.00     -15.24 -999.99  -15.24    0.00000     0.00  LINEAR    9.27471E-02  -151.12    0.00000E+00     0.00
   -5.00    20.00     -21.28 -999.99  -21.28    0.00000     0.00  LINEAR    4.62888E-02  -136.33    0.00000E+00     0.00
    0.00    20.00    -999.99 -999.99 -999.99    0.00000     0.00            0.00000E+00     0.00    0.00000E+00     0.00
 -180.00    25.00    -999.99 -999.99 -999.99    0.00000     0.00            5.41437E-12    58.55    0.00000E+00     0.00
 -175.00    25.00     -21.28 -999.99  -21.28    0.00000     0.00  LINEAR    4.62895E-02  -135.80    0.00000E+00     0.00
 -170.00    25.00     -15.24 -999.99  -15.24    0.00000     0.00  LINEAR    9.27461E-02  -150.06    0.00000E+00     0.00
 -165.00    25.00     -11.69 -999.99  -11.69    0.00000     0.00  LINEAR    1.39600E-01  -164.10    0.00000E+00     0.00
 -160.00    25.00      -9.15 -999.99   -9.15    0.00000     0.00  LINEAR    1.87013E-01  -177.82    0.00000E+00     0.00
 -155.00    25.00      -7.16 -999.99   -7.16    0.00000     0.00  LINEAR    2.35044E-01   168.90    0.00000E+00     0.00
 -150.00    25.00      -5.53 -999.99   -5.53    0.00000     0.00  LINEAR    2.83619E-01   156.17    0.00000E+00     0.00
 -145.00    25.00      -4.15 -999.99   -4.15    0.00000     0.00  LINEAR    3.32506E-01   144.08    0.00000E+00     0.00
 -140.00    25.00      -2.96 -999.99   -2.96    0.00000     0.00  LINEAR    3.81303E-01   132.73    0.00000E+00     0.00
 -135.00    25.00      -1.93 -999.99   -1.93    0.00000     0.00  LINEAR    4.29439E-01   122.19    0.00000E+00     0.00
 -130.00    25.00      -1.03 -999.99   -1.03    0.00000     0.00  LINEAR    4.76189E-01   112.55    0.00000E+00     0.00
 -125.00    25.00      -0.26 -999.99   -0.26    0.00000     0.00  LINEAR    5.20695E-01   103.88    0.00000E+00     0.00
 -120.00    25.00       0.41 -999.99    0.41    0.00000     0.00  LINEAR    5.62014E-01    96.23    0.00000E+00     0.00
 -115.00    25.00       0.96 -999.99    0.96    0.00000     0.00  LINEAR    5.99157E-01    89.67    0.00000E+00     0.00
 -110.00    25.00       1.42 -999.99    1.42    0.00000     0.00  LINEAR    6.31153E-01    84.24    0.00000E+00     0.00
 -105.00    25.00       1.77 -999.99    1.77    0.00000     0.00  LINEAR    6.57103E-01    79.97    0.00000E+00     0.00
 -100.00    25.00       2.01 -999.99    2.01    0.00000     0.00  LINEAR    6.76237E-01    76.91    0.00000E+00     0.00
  -95.00    25.00       2.16 -999.99    2.16    0.00000     0.00  LINEAR    6.87965E-01    75.06    0.00000E+00     0.00
  -90.00    25.00       2.21 -999.99    2.21    0.00000     0.00  LINEAR    6.91917E-01    74.44    0.00000E+00     0.00
  -85.00    25.00       2.16 -999.99    2.16    0.00000     0.00  LINEAR    6.87965E-01    75.06    0.00000E+00     0.00
  -80.00    25.00       2.01 -999.99    2.01    0.00000     0.00  LINEAR    6.76237E-01    76.91    0.00000E+00     0.00
  -75.00    25.00       1.77 -999.99    1.77    0.00000     0.00  LINEAR    6.57103E-01    79.97    0.00000E+00     0.00
  -70.00    25.00       1.42 -999.99    1.42    0.00000     0.00  LINEAR    6.31153E-01    84.24    0.00000E+00     0.00
  -65.00    25.00       0.96 -999.99    0.96    0.00000     0.00  LINEAR    5.99157E-01    89.67    0.00000E+00     0.00
  -60.00    25.00       0.41 -999.99    0.41    0.00000     0.00  LINEAR    5.62014E-01    96.23    0.00000E+00     0.00
  -55.00    25.00      -0.26 -999.99   -0.26    0.00000     0.00  LINEAR    5.20695E-01   103.88    0.00000E+00     0.00
  -50.00    25.00      -1.03 -999.99   -1.03    0.00000     0.00  LINEAR    4.76189E-01   112.55    0.00000E+00     0.00
  -45.00    25.00      -1.93 -999.99   -1.93    0.00000     0.00  LINEAR    4.29439E-01   122.19    0.00000E+00     0.00
  -40.00    25.00      -2.96 -999.99   -2.96    0.00000     0.00  LINEAR    3.81303E-01   132.73    0.00000E+00     0.00
  -35.00    25.00      -4.15 -999.99   -4.15    0.00000     0.00  LINEAR    3.32506E-01   144.08    0.00000E+00     0.00
  -30.00    25.00      -5.53 -999.99   -5.53    0.00000     0.00  LINEAR    2.83619E-01   156.17    0.00000E+00     0.00
  -25.00    25.00      -7.16 -999.99   -7.16    0.00000     0.00  LINEAR    2.35044E-01   168.90    0.00000E+00     0.00
  -20.00    25.00      -9.15 -999.99   -9.15    0.00000     0.00  LINEAR    1.87013E-01  -177.82    0.00000E+00     0.00
  -15.00    25.00     -11.69 -999.99  -11.69    0.00000     0.00  LINEAR    1.39600E-01  -164.10    0.00000E+00     0.00
  -10.00    25.00     -15.24 -999.99  -15.24    0.00000     0.00  LINEAR    9.27461E-02  -150.06    0.00000E+00     0.00
   -5.00    25.00     -21.28 -999.99  -21.28    0.00000     0.00  LINEAR    4.62895E-02  -135.80    0.00000E+00     0.00
    0.00    25.00    -999.99 -999.99 -999.99    0.00000     0.00            0.00000E+00     0.00    0.00000E+00     0.00
 -180.00    30.00    -999.99 -999.99 -999.99    0.00000     0.00            5.41437E-12    58.55    0.00000E+00     0.00
 -175.00    30.00     -21.28 -999.99  -21.28    0.00000     0.00  LINEAR    4.62905E-02  -135.17    0.00000E+00     0.00
 -170.00    30.00     -15.24 -999.99  -15.24    0.00000     0.00  LINEAR    9.27453E-02  -148.79    0.00000E+00     0.00
 -165.00    30.00     -11.69 -999.99  -11.69    0.00000     0.00  LINEAR    1.39588E-01  -162.21    0.00000E+00     0.00
 -160.00    30.00      -9.15 -999.99   -9.15    0.00000     0.00  LINEAR    1.86974E-01  -175.32    0.00000E+00     0.00
 -155.00    30.00      -7.17 -999.99   -7.17    0.00000     0.00  LINEAR    2.34962E-01   171.99    0.00000E+00     0.00
 -150.00    30.00      -5.54 -999.99   -5.54    0.00000     0.00  LINEAR    2.83475E-01   159.82    0.00000E+00     0.00
 -145.00    30.00      -4.16 -999.99   -4.16    0.00000     0.00  LINEAR    3.32286E-01   148.26    0.00000E+00     0.00
 -140.00    30.00      -2.97 -999.99   -2.97    0.00000     0.00  LINEAR    3.80998E-01   137.40    0.00000E+00     0.00
 -135.00    30.00      -1.94 -999.99   -1.94    0.00000     0.00  LINEAR    4.29048E-01   127.32    0.00000E+00     0.00
 -130.00    30.00      -1.04 -999.99   -1.04    0.00000     0.00  LINEAR    4.75717E-01   118.10    0.00000E+00     0.00
 -125.00    30.00      -0.26 -999.99   -0.26    0.00000     0.00  LINEAR    5.20154E-01   109.80    0.00000E+00     0.00
 -120.00    30.00       0.40 -999.99    0.40    0.00000     0.00  LINEAR    5.61418E-01   102.49    0.00000E+00     0.00
 -115.00    30.00       0.95 -999.99    0.95    0.00000     0.00  LINEAR    5.98523E-01    96.21    0.00000E+00     0.00
 -110.00    30.00       1.41 -999.99    1.41    0.00000     0.00  LINEAR    6.30495E-01    91.02    0.00000E+00     0.00
 -105.00    30.00       1.76 -999.99    1.76    0.00000     0.00  LINEAR    6.56433E-01    86.93    0.00000E+00     0.00
 -100.00    30.00       2.01 -999.99    2.01    0.00000     0.00  LINEAR    6.75562E-01    84.00    0.00000E+00     0.00
  -95.00    30.00       2.16 -999.99    2.16    0.00000     0.00  LINEAR    6.87289E-01    82.23    0.00000E+00     0.00
  -90.00    30.00       2.21 -999.99    2.21    0.00000     0.00  LINEAR    6.91240E-01    81.64    0.00000E+00     0.00
  -85.00    30.00       2.16 -999.99    2.16    0.00000     0.00  LINEAR    6.87289E-01    82.23    0.00000E+00     0.00
  -80.00    30.00       2.01 -999.99    2.01    0.00000     0.00  LINEAR    6.75562E-01    84.00    0.00000E+00     0.00
  -75.00    30.00       1.76 -999.99    1.76    0.00000     0.00  LINEAR    6.56433E-01    86.93    0.00000E+00     0.00
  -70.00    30.00       1.41 -999.99    1.41    0.00000     0.00  LINEAR    6.30495E-01    91.02    0.00000E+00     0.00
  -65.00    30.00       0.95 -999.99    0.95    0.00000     0.00  LINEAR    5.98523E-01    96.21    0.00000E+00     0.00
  -60.00    30.00       0.40 -999.99    0.40    0.00000     0.00  LINEAR    5.61418E-01   102.49    0.00000E+00     0.00
  -55.00    30.00      -0.26 -999.99   -0.26    0.00000     0.00  LINEAR    5.20154E-01   109.80    0.00000E+00     0.00
  -50.00    30.00      -1.04 -999.99   -1.04    0.00000     0.00  LINEAR    4.75717E-01   118.10    0.00000E+00     0.00
  -45.00    30.00      -1.94 -999.99   -1.94    0.00000     0.00  LINEAR    4.29048E-01   127.32    0.00000E+00     0.00
  -40.00    30.00      -2.97 -999.99   -2.97    0.00000     0.00  LINEAR    3.80998E-01   137.40    0.00000E+00     0.00
  -35.00    30.00      -4.16 -999.99   -4.16    0.00000     0.00  LINEAR    3.32286E-01   148.26    0.00000E+00     0.00
  -30.00    30.00      -5.54 -999.99   -5.54    0.00000     0.00  LINEAR    2.83475E-01   159.82    0.00000E+00     0.00
  -25.00    30.00      -7.17 -999.99   -7.17    0.00000     0.00  LINEAR    2.34962E-01   171.99    0.00000E+00     0.00
  -20.00    30.00      -9.15 -999.99   -9.15    0.00000     0.00  LINEAR    1.86974E-01  -175.32    0.00000E+00     0.00
  -15.00    30.00     -11.69 -999.99  -11.69    0.00000     0.00  LINEAR    1.39588E-01  -162.21    0.00000E+00     0.00
  -10.00    30.00     -15.24 -999.99  -15.24    0.00000     0.00  LINEAR    9.27453E-02  -148.79    0.00000E+00     0.00
   -5.00    30.00     -21.28 -999.99  -21.28    0.00000     0.00  LINEAR    4.62905E-02  -135.17    0.00000E+00     0.00
    0.00    30.00    -999.99 -999.99 -999.99    0.00000     0.00            0.00000E+00     0.00    0.00000E+00     0.00
 -180.00    35.00    -999.99 -999.99 -999.99    0.00000     0.00            5.41437E-12    58.55    0.00000E+00     0.00
 -175.00    35.00     -21.28 -999.99  -21.28    0.00000     0.00  LINEAR    4.62916E-02  -134.42    0.00000E+00     0.00
 -170.00    35.00     -15.24 -999.99  -15.24    0.00000     0.00  LINEAR    9.27448E-02  -147.31    0.00000E+00     0.00
 -165.00    35.00     -11.69 -999.99  -11.69    0.00000     0.00  LINEAR    1.39575E-01  -160.00    0.00000E+00     0.00
 -160.00    35.00      -9.15 -999.99   -9.15    0.00000     0.00  LINEAR    1.86934E-01  -172.40    0.00000E+00     0.00
 -155.00    35.00      -7.17 -999.99   -7.17    0.00000     0.00  LINEAR    2.34872E-01   175.59    0.00000E+00     0.00
 -150.00    35.00      -5.54 -999.99   -5.54    0.00000     0.00  LINEAR    2.83316E-01   164.07    0.00000E+00     0.00
 -145.00    35.00      -4.16 -999.99   -4.16    0.00000     0.00  LINEAR    3.32039E-01   153.12    0.00000E+00     0.00
 -140.00    35.00      -2.98 -999.99   -2.98    0.00000     0.00  LINEAR    3.80651E-01   142.84    0.00000E+00     0.00
 -135.00    35.00      -1.95 -999.99   -1.95    0.00000     0.00  LINEAR    4.28596E-01   133.30    0.00000E+00     0.00
 -130.00    35.00      -1.05 -999.99   -1.05    0.00000     0.00  LINEAR    4.75163E-01   124.57    0.00000E+00     0.00
 -125.00    35.00      -0.28 -999.99   -0.28    0.00000     0.00  LINEAR    5.19508E-01   116.71    0.00000E+00     0.00
 -120.00    35.00       0.39 -999.99    0.39    0.00000     0.00  LINEAR    5.60694E-01   109.78    0.00000E+00     0.00
 -115.00    35.00       0.94 -999.99    0.94    0.00000     0.00  LINEAR    5.97739E-01   103.83    0.00000E+00     0.00
 -110.00    35.00       1.40 -999.99    1.40    0.00000     0.00  LINEAR    6.29667E-01    98.91    0.00000E+00     0.00
 -105.00    35.00       1.75 -999.99    1.75    0.00000     0.00  LINEAR    6.55576E-01    95.04    0.00000E+00     0.00
 -100.00    35.00       1.99 -999.99    1.99    0.00000     0.00  LINEAR    6.74688E-01    92.26    0.00000E+00     0.00
  -95.00    35.00       2.14 -999.99    2.14    0.00000     0.00  LINEAR    6.86406E-01    90.59    0.00000E+00     0.00
  -90.00    35.00       2.19 -999.99    2.19    0.00000     0.00  LINEAR    6.90355E-01    90.02    0.00000E+00     0.00
  -85.00    35.00       2.14 -999.99    2.14    0.00000     0.00  LINEAR    6.86406E-01    90.59    0.00000E+00     0.00
  -80.00    35.00       1.99 -999.99    1.99    0.00000     0.00  LINEAR    6.74688E-01    92.26    0.00000E+00     0.00
  -75.00    35.00       1.75 -999.99    1.75    0.00000     0.00  LINEAR    6.55576E-01    95.04    0.00000E+00     0.00
  -70.00    35.00       1.40 -999.99    1.40    0.00000     0.00  LINEAR    6.29667E-01    98.91    0.00000E+00     0.00
  -65.00    35.00       0.94 -999.99    0.94    0.00000     0.00  LINEAR    5.97739E-01   103.83    0.00000E+00     0.00
  -60.00    35.00       0.39 -999.99    0.39    0.00000     0.00  LINEAR    5.60694E-01   109.78    0.00000E+00     0.00
  -55.00    35.00      -0.28 -999.99   -0.28    0.00000     0.00  LINEAR    5.19508E-01   116.71    0.00000E+00     0.00
  -50.00    35.00      -1.05 -999.99   -1.05    0.00000     0.00  LINEAR    4.75163E-01   124.57    0.00000E+00     0.00
  -45.00    35.00      -1.95 -999.99   -1.95    0.00000     0.00  LINEAR    4.28596E-01   133.30    0.00000E+00     0.00
  -40.00    35.00      -2.98 -999.99   -2.98    0.00000     0.00  LINEAR    3.80651E-01   142.84    0.00000E+00     0.00
  -35.00    35.00      -4.16 -999.99   -4.16    0.00000     0.00  LINEAR    3.32039E-01   153.12    0.00000E+00     0.00
  -30.00    35.00      -5.54 -999.99   -5.54    0.00000     0.00  LINEAR    2.83316E-01   164.07    0.00000E+00     0.00
  -25.00    35.00      -7.17 -999.99   -7.17    0.00000     0.00  LINEAR    2.34872E-01   175.59    0.00000E+00     0.00
  -20.00    35.00      -9.15 -999.99   -9.15    0.00000     0.00  LINEAR    1.86934E-01  -172.40    0.00000E+00     0.00
  -15.00    35.00     -11.69 -999.99  -11.69    0.00000     0.00  LINEAR    1.39575E-01  -160.00    0.00000E+00     0.00
  -10.00    35.00     -15.24 -999.99  -15.24    0.00000     0.00  LINEAR    9.27448E-02  -147.31    0.00000E+00     0.00
   -5.00    35.00     -21.28 -999.99  -21.28    0.00000     0.00  LINEAR    4.62916E-02  -134.42    0.00000E+00     0.00
    0.00    35.00    -999.99 -999.99 -999.99    0.00000     0.00            0.00000E+00     0.00    0.00000E+00     0.00
 -180.00    40.00    -999.99 -999.99 -999.99    0.00000     0.00            5.41437E-12    58.55    0.00000E+00     0.00
 -175.00    40.00     -21.28 -999.99  -21.28    0.00000     0.00  LINEAR    4.62931E-02  -133.58    0.00000E+00     0.00
 -170.00    40.00     -15.24 -999.99  -15.24    0.00000     0.00  LINEAR    9.27450E-02  -145.63    0.00000E+00     0.00
 -165.00    40.00     -11.69 -999.99  -11.69    0.00000     0.00  LINEAR    1.39563E-01  -157.50    0.00000E+00     0.00
 -160.00    40.00      -9.16 -999.99   -9.16    0.00000     0.00  LINEAR    1.86892E-01  -169.10    0.00000E+00     0.00
 -155.00    40.00      -7.17 -999.99   -7.17    0.00000     0.00  LINEAR    2.34779E-01   179.66    0.00000E+00     0.00
 -150.00    40.00      -5.55 -999.99   -5.55    0.00000     0.00  LINEAR    2.83148E-01   168.88    0.00000E+00     0.00
 -145.00    40.00      -4.17 -999.99   -4.17    0.00000     0.00  LINEAR    3.31773E-01   158.64    0.00000E+00     0.00
 -140.00    40.00      -2.99 -999.99   -2.99    0.00000     0.00  LINEAR    3.80272E-01   149.01    0.00000E+00     0.00
 -135.00    40.00      -1.96 -999.99   -1.96    0.00000     0.00  LINEAR    4.28095E-01   140.08    0.00000E+00     0.00
 -130.00    40.00      -1.06 -999.99   -1.06    0.00000     0.00  LINEAR    4.74538E-01   131.90    0.00000E+00     0.00
 -125.00    40.00      -0.29 -999.99   -0.29    0.00000     0.00  LINEAR    5.18766E-01   124.54    0.00000E+00     0.00
 -120.00    40.00       0.37 -999.99    0.37    0.00000     0.00  LINEAR    5.59849E-01   118.05    0.00000E+00     0.00
 -115.00    40.00       0.93 -999.99    0.93    0.00000     0.00  LINEAR    5.96806E-01   112.48    0.00000E+00     0.00
 -110.00    40.00       1.38 -999.99    1.38    0.00000     0.00  LINEAR    6.28667E-01   107.87    0.00000E+00     0.00
 -105.00    40.00       1.73 -999.99    1.73    0.00000     0.00  LINEAR    6.54525E-01   104.24    0.00000E+00     0.00
 -100.00    40.00       1.98 -999.99    1.98    0.00000     0.00  LINEAR    6.73604E-01   101.64    0.00000E+00     0.00
  -95.00    40.00       2.13 -999.99    2.13    0.00000     0.00  LINEAR    6.85303E-01   100.07    0.00000E+00     0.00
  -90.00    40.00       2.18 -999.99    2.18    0.00000     0.00  LINEAR    6.89246E-01    99.54    0.00000E+00     0.00
  -85.00    40.00       2.13 -999.99    2.13    0.00000     0.00  LINEAR    6.85303E-01   100.07    0.00000E+00     0.00
  -80.00    40.00       1.98 -999.99    1.98    0.00000     0.00  LINEAR    6.73604E-01   101.64    0.00000E+00     0.00
  -75.00    40.00       1.73 -999.99    1.73    0.00000     0.00  LINEAR    6.54525E-01   104.24    0.00000E+00     0.00
  -70.00    40.00       1.38 -999.99    1.38    0.00000     0.00  LINEAR    6.28667E-01   107.87    0.00000E+00     0.00
  -65.00    40.00       0.93 -999.99    0.93    0.00000     0.00  LINEAR    5.96806E-01   112.48    0.00000E+00     0.00
  -60.00    40.00       0.37 -999.99    0.37    0.00000     0.00  LINEAR    5.59849E-01   118.05    0.00000E+00     0.00
  -55.00    40.00      -0.29 -999.99   -0.29    0.00000     0.00  LINEAR    5.18766E-01   124.54    0.00000E+00     0.00
  -50.00    40.00      -1.06 -999.99   -1.06    0.00000     0.00  LINEAR    4.74538E-01   131.90    0.00000E+00     0.00
  -45.00    40.00      -1.96 -999.99   -1.96    0.00000     0.00  LINEAR    4.28095E-01   140.08    0.00000E+00     0.00
  -40.00    40.00      -2.99 -999.99   -2.99    0.00000     0.00  LINEAR    3.80272E-01   149.01    0.00000E+00     0.00
  -35.00    40.00      -4.17 -999.99   -4.17    0.00000     0.00  LINEAR    3.31773E-01   158.64    0.00000E+00     0.00
  -30.00    40.00      -5.55 -999.99   -5.55    0.00000     0.00  LINEAR    2.83148E-01   168.88    0.00000E+00     0.00
  -25.00    40.00      -7.17 -999.99   -7.17    0.00000     0.00  LINEAR    2.34779E-01   179.66    0.00000E+00     0.00
  -20.00    40.00      -9.16 -999.99   -9.16    0.00000     0.00  LINEAR    1.86892E-01  -169.10    0.00000E+00     0.00
  -15.00    40.00     -11.69 -999.99  -11.69    0.00000     0.00  LINEAR    1.39563E-01  -157.50    0.00000E+00     0.00
  -10.00    40.00     -15.24 -999.99  -15.24    0.00000     0.00  LINEAR    9.27450E-02  -145.63    0.00000E+00     0.00
   -5.00    40.00     -21.28 -999.99  -21.28    0.00000     0.00  LINEAR    4.62931E-02  -133.58    0.00000E+00     0.00
    0.00    40.00    -999.99 -999.99 -999.99    0.00000     0.00            0.00000E+00     0.00    0.00000E+00     0.00
 -180.00    45.00    -999.99 -999.99 -999.99    0.00000     0.00            5.41437E-12    58.55    0.00000E+00     0.00
 -175.00    45.00     -21.28 -999.99  -21.28    0.00000     0.00  LINEAR    4.62947E-02  -132.65    0.00000E+00     0.00
 -170.00    45.00     -15.24 -999.99  -15.24    0.00000     0.00  LINEAR    9.27461E-02  -143.77    0.00000E+00     0.00
 -165.00    45.00     -11.69 -999.99  -11.69    0.00000     0.00  LINEAR    1.39553E-01  -154.73    0.00000E+00     0.00
 -160.00    45.00      -9.16 -999.99   -9.16    0.00000     0.00  LINEAR    1.86853E-01  -165.44    0.00000E+00     0.00
 -155.00    45.00      -7.18 -999.99   -7.18    0.00000     0.00  LINEAR    2.34687E-01  -175.81    0.00000E+00     0.00
 -150.00    45.00      -5.55 -999.99   -5.55    0.00000     0.00  LINEAR    2.82977E-01   174.23    0.00000E+00     0.00
 -145.00    45.00      -4.18 -999.99   -4.18    0.00000     0.00  LINEAR    3.31500E-01   164.77    0.00000E+00     0.00
 -140.00    45.00      -2.99 -999.99   -2.99    0.00000     0.00  LINEAR    3.79875E-01   155.87    0.00000E+00     0.00
 -135.00    45.00      -1.97 -999.99   -1.97    0.00000     0.00  LINEAR    4.27560E-01   147.61    0.00000E+00     0.00
 -130.00    45.00      -1.07 -999.99   -1.07    0.00000     0.00  LINEAR    4.73859E-01   140.05    0.00000E+00     0.00
 -125.00    45.00      -0.30 -999.99   -0.30    0.00000     0.00  LINEAR    5.17947E-01   133.25    0.00000E+00     0.00
 -120.00    45.00       0.36 -999.99    0.36    0.00000     0.00  LINEAR    5.58898E-01   127.24    0.00000E+00     0.00
 -115.00    45.00       0.91 -999.99    0.91    0.00000     0.00  LINEAR    5.95741E-01   122.09    0.00000E+00     0.00
 -110.00    45.00       1.37 -999.99    1.37    0.00000     0.00  LINEAR    6.27507E-01   117.82    0.00000E+00     0.00
 -105.00    45.00       1.72 -999.99    1.72    0.00000     0.00  LINEAR    6.53292E-01   114.47    0.00000E+00     0.00
 -100.00    45.00       1.96 -999.99    1.96    0.00000     0.00  LINEAR    6.72318E-01   112.06    0.00000E+00     0.00
  -95.00    45.00       2.11 -999.99    2.11    0.00000     0.00  LINEAR    6.83987E-01   110.61    0.00000E+00     0.00
  -90.00    45.00       2.16 -999.99    2.16    0.00000     0.00  LINEAR    6.87920E-01   110.12    0.00000E+00     0.00
  -85.00    45.00       2.11 -999.99    2.11    0.00000     0.00  LINEAR    6.83987E-01   110.61    0.00000E+00     0.00
  -80.00    45.00       1.96 -999.99    1.96    0.00000     0.00  LINEAR    6.72318E-01   112.06    0.00000E+00     0.00
  -75.00    45.00       1.72 -999.99    1.72    0.00000     0.00  LINEAR    6.53292E-01   114.47    0.00000E+00     0.00
  -70.00    45.00       1.37 -999.99    1.37    0.00000     0.00  LINEAR    6.27507E-01   117.82    0.00000E+00     0.00
  -65.00    45.00       0.91 -999.99    0.91    0.00000     0.00  LINEAR    5.95741E-01   122.09    0.00000E+00     0.00
  -60.00    45.00       0.36 -999.99    0.36    0.00000     0.00  LINEAR    5.58898E-01   127.24    0.00000E+00     0.00
  -55.00    45.00      -0.30 -999.99   -0.30    0.00000     0.00  LINEAR    5.17947E-01   133.25    0.00000E+00     0.00
  -50.00    45.00      -1.07 -999.99   -1.07    0.00000     0.00  LINEAR    4.73859E-01   140.05    0.00000E+00     0.00
  -45.00    45.00      -1.97 -999.99   -1.97    0.00000     0.00  LINEAR    4.27560E-01   147.61    0.00000E+00     0.00
  -40.00    45.00      -2.99 -999.99   -2.99    0.00000     0.00  LINEAR    3.79875E-01   155.87    0.00000E+00     0.00
  -35.00    45.00      -4.18 -999.99   -4.18    0.00000     0.00  LINEAR    3.31500E-01   164.77    0.00000E+00     0.00
  -30.00    45.00      -5.55 -999.99   -5.55    0.00000     0.00  LINEAR    2.82977E-01   174.23    0.00000E+00     0.00
  -25.00    45.00      -7.18 -999.99   -7.18    0.00000     0.00  LINEAR    2.34687E-01  -175.81    0.00000E+00     0.00
  -20.00    45.00      -9.16 -999.99   -9.16    0.00000     0.00  LINEAR    1.86853E-01  -165.44    0.00000E+00     0.00
  -15.00    45.00     -11.69 -999.99  -11.69    0.00000     0.00  LINEAR    1.39553E-01  -154.73    0.00000E+00     0.00
  -10.00    45.00     -15.24 -999.99  -15.24    0.00000     0.00  LINEAR    9.27461E-02  -143.77    0.00000E+00     0.00
   -5.00    45.00     -21.28 -999.99  -21.28    0.00000     0.00  LINEAR    4.62947E-02  -132.65    0.00000E+00     0.00
    0.00    45.00    -999.99 -999.99 -999.99    0.00000     0.00            0.00000E+00     0.00    0.00000E+00     0.00
 -180.00    50.00    -999.99 -999.99 -999.99    0.00000     0.00            5.41437E-12    58.55    0.00000E+00     0.00
 -175.00    50.00     -21.28 -999.99  -21.28    0.00000     0.00  LINEAR    4.62967E-02  -131.63    0.00000E+00     0.00
 -170.00    50.00     -15.24 -999.99  -15.24    0.00000     0.00  LINEAR    9.27484E-02  -141.74    0.00000E+00     0.00
 -165.00    50.00     -11.69 -999.99  -11.69    0.00000     0.00  LINEAR    1.39546E-01  -151.70    0.00000E+00     0.00
 -160.00    50.00      -9.16 -999.99   -9.16    0.00000     0.00  LINEAR    1.86818E-01  -161.44    0.00000E+00     0.00
 -155.00    50.00      -7.18 -999.99   -7.18    0.00000     0.00  LINEAR    2.34601E-01  -170.88    0.00000E+00     0.00
 -150.00    50.00      -5.56 -999.99   -5.56    0.00000     0.00  LINEAR    2.82813E-01  -179.93    0.00000E+00     0.00
 -145.00    50.00      -4.18 -999.99   -4.18    0.00000     0.00  LINEAR    3.31230E-01   171.46    0.00000E+00     0.00
 -140.00    50.00      -3.00 -999.99   -3.00    0.00000     0.00  LINEAR    3.79475E-01   163.36    0.00000E+00     0.00
 -135.00    50.00      -1.98 -999.99   -1.98    0.00000     0.00  LINEAR    4.27012E-01   155.85    0.00000E+00     0.00
 -130.00    50.00      -1.09 -999.99   -1.09    0.00000     0.00  LINEAR    4.73152E-01   148.96    0.00000E+00     0.00
 -125.00    50.00      -0.32 -999.99   -0.32    0.00000     0.00  LINEAR    5.17079E-01   142.76    0.00000E+00     0.00
 -120.00    50.00       0.34 -999.99    0.34    0.00000     0.00  LINEAR    5.57875E-01   137.29    0.00000E+00     0.00
 -115.00    50.00       0.90 -999.99    0.90    0.00000     0.00  LINEAR    5.94577E-01   132.60    0.00000E+00     0.00
 -110.00    50.00       1.35 -999.99    1.35    0.00000     0.00  LINEAR    6.26221E-01   128.71    0.00000E+00     0.00
 -105.00    50.00       1.70 -999.99    1.70    0.00000     0.00  LINEAR    6.51909E-01   125.66    0.00000E+00     0.00
 -100.00    50.00       1.95 -999.99    1.95    0.00000     0.00  LINEAR    6.70865E-01   123.46    0.00000E+00     0.00
  -95.00    50.00       2.09 -999.99    2.09    0.00000     0.00  LINEAR    6.82491E-01   122.13    0.00000E+00     0.00
  -90.00    50.00       2.14 -999.99    2.14    0.00000     0.00  LINEAR    6.86409E-01   121.69    0.00000E+00     0.00
  -85.00    50.00       2.09 -999.99    2.09    0.00000     0.00  LINEAR    6.82491E-01   122.13    0.00000E+00     0.00
  -80.00    50.00       1.95 -999.99    1.95    0.00000     0.00  LINEAR    6.70865E-01   123.46    0.00000E+00     0.00
  -75.00    50.00       1.70 -999.99    1.70    0.00000     0.00  LINEAR    6.51909E-01   125.66    0.00000E+00     0.00
  -70.00    50.00       1.35 -999.99    1.35    0.00000     0.00  LINEAR    6.26221E-01   128.71    0.00000E+00     0.00
  -65.00    50.00       0.90 -999.99    0.90    0.00000     0.00  LINEAR    5.94577E-01   132.60    0.00000E+00     0.00
  -60.00    50.00       0.34 -999.99    0.34    0.00000     0.00  LINEAR    5.57875E-01   137.29    0.00000E+00     0.00
  -55.00    50.00      -0.32 -999.99   -0.32    0.00000     0.00  LINEAR    5.17079E-01   142.76    0.00000E+00     0.00
  -50.00    50.00      -1.09 -999.99   -1.09    0.00000     0.00  LINEAR    4.73152E-01   148.96    0.00000E+00     0.00
  -45.00    50.00      -1.98 -999.99   -1.98    0.00000     0.00  LINEAR    4.27012E-01   155.85    0.00000E+00     0.00
  -40.00    50.00      -3.00 -999.99   -3.00    0.00000     0.00  LINEAR    3.79475E-01   163.36    0.00000E+00     0.00
  -35.00    50.00      -4.18 -999.99   -4.18    0.00000     0.00  LINEAR    3.31230E-01   171.46    0.00000E+00     0.00
  -30.00    50.00      -5.56 -999.99   -5.56    0.00000     0.00  LINEAR    2.82813E-01  -179.93    0.00000E+00     0.00
  -25.00    50.00      -7.18 -999.99   -7.18    0.00000     0.00  LINEAR    2.34601E-01  -170.88    0.00000E+00     0.00
  -20.00    50.00      -9.16 -999.99   -9.16    0.00000     0.00  LINEAR    1.86818E-01  -161.44    0.00000E+00     0.00
  -15.00    50.00     -11.69 -999.99  -11.69    0.00000     0.00  LINEAR    1.39546E-01  -151.70    0.00000E+00     0.00
  -10.00    50.00     -15.24 -999.99  -15.24    0.00000     0.00  LINEAR    9.27484E-02  -141.74    0.00000E+00     0.00
   -5.00    50.00     -21.28 -999.99  -21.28    0.00000     0.00  LINEAR    4.62967E-02  -131.63    0.00000E+00     0.00
    0.00    50.00    -999.99 -999.99 -999.99    0.00000     0.00            0.00000E+00     0.00    0.00000E+00     0.00
 -180.00    55.00    -999.99 -999.99 -999.99    0.00000     0.00            5.41437E-12    58.55    0.00000E+00     0.00
 -175.00    55.00     -21.28 -999.99  -21.28    0.00000     0.00  LINEAR    4.62989E-02  -130.53    0.00000E+00     0.00
 -170.00    55.00     -15.24 -999.99  -15.24    0.00000     0.00  LINEAR    9.27520E-02  -139.56    0.00000E+00     0.00
 -165.00    55.00     -11.69 -999.99  -11.69    0.00000     0.00  LINEAR    1.39542E-01  -148.45    0.00000E+00     0.00
 -160.00    55.00      -9.16 -999.99   -9.16    0.00000     0.00  LINEAR    1.86789E-01  -157.14    0.00000E+00     0.00
 -155.00    55.00      -7.18 -999.99   -7.18    0.00000     0.00  LINEAR    2.34525E-01  -165.56    0.00000E+00     0.00
 -150.00    55.00      -5.56 -999.99   -5.56    0.00000     0.00  LINEAR    2.82662E-01  -173.65    0.00000E+00     0.00
 -145.00    55.00      -4.19 -999.99   -4.19    0.00000     0.00  LINEAR    3.30977E-01   178.67    0.00000E+00     0.00
 -140.00    55.00      -3.01 -999.99   -3.01    0.00000     0.00  LINEAR    3.79093E-01   171.43    0.00000E+00     0.00
 -135.00    55.00      -1.99 -999.99   -1.99    0.00000     0.00  LINEAR    4.26477E-01   164.72    0.00000E+00     0.00
 -130.00    55.00      -1.10 -999.99   -1.10    0.00000     0.00  LINEAR    4.72450E-01   158.56    0.00000E+00     0.00
 -125.00    55.00      -0.33 -999.99   -0.33    0.00000     0.00  LINEAR    5.16202E-01   153.02    0.00000E+00     0.00
 -120.00    55.00       0.33 -999.99    0.33    0.00000     0.00  LINEAR    5.56826E-01   148.13    0.00000E+00     0.00
 -115.00    55.00       0.88 -999.99    0.88    0.00000     0.00  LINEAR    5.93366E-01   143.93    0.00000E+00     0.00
 -110.00    55.00       1.33 -999.99    1.33    0.00000     0.00  LINEAR    6.24867E-01   140.45    0.00000E+00     0.00
 -105.00    55.00       1.68 -999.99    1.68    0.00000     0.00  LINEAR    6.50437E-01   137.72    0.00000E+00     0.00
 -100.00    55.00       1.93 -999.99    1.93    0.00000     0.00  LINEAR    6.69306E-01   135.75    0.00000E+00     0.00
  -95.00    55.00       2.07 -999.99    2.07    0.00000     0.00  LINEAR    6.80878E-01   134.57    0.00000E+00     0.00
  -90.00    55.00       2.12 -999.99    2.12    0.00000     0.00  LINEAR    6.84779E-01   134.17    0.00000E+00     0.00
  -85.00    55.00       2.07 -999.99    2.07    0.00000     0.00  LINEAR    6.80878E-01   134.57    0.00000E+00     0.00
  -80.00    55.00       1.93 -999.99    1.93    0.00000     0.00  LINEAR    6.69306E-01   135.75    0.00000E+00     0.00
  -75.00    55.00       1.68 -999.99    1.68    0.00000     0.00  LINEAR    6.50437E-01   137.72    0.00000E+00     0.00
  -70.00    55.00       1.33 -999.99    1.33    0.00000     0.00  LINEAR    6.24867E-01   140.45    0.00000E+00     0.00
  -65.00    55.00       0.88 -999.99    0.88    0.00000     0.00  LINEAR    5.93366E-01   143.93    0.00000E+00     0.00
  -60.00    55.00       0.33 -999.99    0.33    0.00000     0.00  LINEAR    5.56826E-01   148.13    0.00000E+00     0.00
  -55.00    55.00      -0.33 -999.99   -0.33    0.00000     0.00  LINEAR    5.16202E-01   153.02    0.00000E+00     0.00
  -50.00    55.00      -1.10 -999.99   -1.10    0.00000     0.00  LINEAR    4.72450E-01   158.56    0.00000E+00     0.00
  -45.00    55.00      -1.99 -999.99   -1.99    0.00000     0.00  LINEAR    4.26477E-01   164.72    0.00000E+00     0.00
  -40.00    55.00      -3.01 -999.99   -3.01    0.00000     0.00  LINEAR    3.79093E-01   171.43    0.00000E+00     0.00
  -35.00    55.00      -4.19 -999.99   -4.19    0.00000     0.00  LINEAR    3.30977E-01   178.67    0.00000E+00     0.00
  -30.00    55.00      -5.56 -999.99   -5.56    0.00000     0.00  LINEAR    2.82662E-01  -173.65    0.00000E+00     0.00
  -25.00    55.00      -7.18 -999.99   -7.18    0.00000     0.00  LINEAR    2.34525E-01  -165.56    0.00000E+00     0.00
  -20.00    55.00      -9.16 -999.99   -9.16    0.00000     0.00  LINEAR    1.86789E-01  -157.14    0.00000E+00     0.00
  -15.00    55.00     -11.69 -999.99  -11.69    0.00000     0.00  LINEAR    1.39542E-01  -148.45    0.00000E+00     0.00
  -10.00    55.00     -15.24 -999.99  -15.24    0.00000     0.00  LINEAR    9.27520E-02  -139.56    0.00000E+00     0.00
   -5.00    55.00     -21.28 -999.99  -21.28    0.00000     0.00  LINEAR    4.62989E-02  -130.53    0.00000E+00     0.00
    0.00    55.00    -999.99 -999.99 -999.99    0.00000     0.00            0.00000E+00     0.00    0.00000E+00     0.00
 -180.00    60.00    -999.99 -999.99 -999.99    0.00000     0.00            5.41437E-12    58.55    0.00000E+00     0.00
 -175.00    60.00     -21.28 -999.99  -21.28    0.00000     0.00  LINEAR    4.63015E-02  -129.37    0.00000E+00     0.00
 -170.00    60.00     -15.24 -999.99  -15.24    0.00000     0.00  LINEAR    9.27572E-02  -137.23    0.00000E+00     0.00
 -165.00    60.00     -11.69 -999.99  -11.69    0.00000     0.00  LINEAR    1.39542E-01  -144.98    0.00000E+00     0.00
 -160.00    60.00      -9.16 -999.99   -9.16    0.00000     0.00  LINEAR    1.86770E-01  -152.56    0.00000E+00     0.00
 -155.00    60.00      -7.19 -999.99   -7.19    0.00000     0.00  LINEAR    2.34465E-01  -159.91    0.00000E+00     0.00
 -150.00    60.00      -5.57 -999.99   -5.57    0.00000     0.00  LINEAR    2.82535E-01  -166.96    0.00000E+00     0.00
 -145.00    60.00      -4.20 -999.99   -4.20    0.00000     0.00  LINEAR    3.30755E-01  -173.67    0.00000E+00     0.00
 -140.00    60.00      -3.02 -999.99   -3.02    0.00000     0.00  LINEAR    3.78748E-01  -179.98    0.00000E+00     0.00
 -135.00    60.00      -2.00 -999.99   -2.00    0.00000     0.00  LINEAR    4.25985E-01   174.16    0.00000E+00     0.00
 -130.00    60.00      -1.11 -999.99   -1.11    0.00000     0.00  LINEAR    4.71792E-01   168.78    0.00000E+00     0.00
 -125.00    60.00      -0.34 -999.99   -0.34    0.00000     0.00  LINEAR    5.15365E-01   163.94    0.00000E+00     0.00
 -120.00    60.00       0.31 -999.99    0.31    0.00000     0.00  LINEAR    5.55810E-01   159.67    0.00000E+00     0.00
 -115.00    60.00       0.86 -999.99    0.86    0.00000     0.00  LINEAR    5.92177E-01   156.00    0.00000E+00     0.00
 -110.00    60.00       1.31 -999.99    1.31    0.00000     0.00  LINEAR    6.23522E-01   152.96    0.00000E+00     0.00
 -105.00    60.00       1.66 -999.99    1.66    0.00000     0.00  LINEAR    6.48962E-01   150.57    0.00000E+00     0.00
 -100.00    60.00       1.90 -999.99    1.90    0.00000     0.00  LINEAR    6.67733E-01   148.85    0.00000E+00     0.00
  -95.00    60.00       2.05 -999.99    2.05    0.00000     0.00  LINEAR    6.79244E-01   147.81    0.00000E+00     0.00
  -90.00    60.00       2.10 -999.99    2.10    0.00000     0.00  LINEAR    6.83123E-01   147.47    0.00000E+00     0.00
  -85.00    60.00       2.05 -999.99    2.05    0.00000     0.00  LINEAR    6.79244E-01   147.81    0.00000E+00     0.00
  -80.00    60.00       1.90 -999.99    1.90    0.00000     0.00  LINEAR    6.67733E-01   148.85    0.00000E+00     0.00
  -75.00    60.00       1.66 -999.99    1.66    0.00000     0.00  LINEAR    6.48962E-01   150.57    0.00000E+00     0.00
  -70.00    60.00       1.31 -999.99    1.31    0.00000     0.00  LINEAR    6.23522E-01   152.96    0.00000E+00     0.00
  -65.00    60.00       0.86 -999.99    0.86    0.00000     0.00  LINEAR    5.92177E-01   156.00    0.00000E+00     0.00
  -60.00    60.00       0.31 -999.99    0.31    0.00000     0.00  LINEAR    5.55810E-01   159.67    0.00000E+00     0.00
  -55.00    60.00      -0.34 -999.99   -0.34    0.00000     0.00  LINEAR    5.15365E-01   163.94    0.00000E+00     0.00
  -50.00    60.00      -1.11 -999.99   -1.11    0.00000     0.00  LINEAR    4.71792E-01   168.78    0.00000E+00     0.00
  -45.00    60.00      -2.00 -999.99   -2.00    0.00000     0.00  LINEAR    4.25985E-01   174.16    0.00000E+00     0.00
  -40.00    60.00      -3.02 -999.99   -3.02    0.00000     0.00  LINEAR    3.78748E-01  -179.98    0.00000E+00     0.00
  -35.00    60.00      -4.20 -999.99   -4.20    0.00000     0.00  LINEAR    3.30755E-01  -173.67    0.00000E+00     0.00
  -30.00    60.00      -5.57 -999.99   -5.57    0.00000     0.00  LINEAR    2.82535E-01  -166.96    0.00000E+00     0.00
  -25.00    60.00      -7.19 -999.99   -7.19    0.00000     0.00  LINEAR    2.34465E-01  -159.91    0.00000E+00     0.00
  -20.00    60.00      -9.16 -999.99   -9.16    0.00000     0.00  LINEAR    1.86770E-01  -152.56    0.00000E+00     0.00
  -15.00    60.00     -11.69 -999.99  -11.69    0.00000     0.00  LINEAR    1.39542E-01  -144.98    0.00000E+00     0.00
  -10.00    60.00     -15.24 -999.99  -15.24    0.00000     0.00  LINEAR    9.27572E-02  -137.23    0.00000E+00     0.00
   -5.00    60.00     -21.28 -999.99  -21.28    0.00000     0.00  LINEAR    4.63015E-02  -129.37    0.00000E+00     0.00
    0.00    60.00    -999.99 -999.99 -999.99    0.00000     0.00            0.00000E+00     0.00    0.00000E+00     0.00
 -180.00    65.00    -999.99 -999.99 -999.99    0.00000     0.00            5.41437E-12    58.55    0.00000E+00     0.00
 -175.00    65.00     -21.27 -999.99  -21.27    0.00000     0.00  LINEAR    4.63044E-02  -128.14    0.00000E+00     0.00
 -170.00    65.00     -15.24 -999.99  -15.24    0.00000     0.00  LINEAR    9.27642E-02  -134.79    0.00000E+00     0.00
 -165.00    65.00     -11.69 -999.99  -11.69    0.00000     0.00  LINEAR    1.39548E-01  -141.34    0.00000E+00     0.00
 -160.00    65.00      -9.16 -999.99   -9.16    0.00000     0.00  LINEAR    1.86761E-01  -147.75    0.00000E+00     0.00
 -155.00    65.00      -7.19 -999.99   -7.19    0.00000     0.00  LINEAR    2.34424E-01  -153.96    0.00000E+00     0.00
 -150.00    65.00      -5.57 -999.99   -5.57    0.00000     0.00  LINEAR    2.82440E-01  -159.92    0.00000E+00     0.00
 -145.00    65.00      -4.20 -999.99   -4.20    0.00000     0.00  LINEAR    3.30578E-01  -165.60    0.00000E+00     0.00
 -140.00    65.00      -3.03 -999.99   -3.03    0.00000     0.00  LINEAR    3.78463E-01  -170.94    0.00000E+00     0.00
 -135.00    65.00      -2.01 -999.99   -2.01    0.00000     0.00  LINEAR    4.25567E-01  -175.90    0.00000E+00     0.00
 -130.00    65.00      -1.12 -999.99   -1.12    0.00000     0.00  LINEAR    4.71219E-01   179.55    0.00000E+00     0.00
 -125.00    65.00      -0.36 -999.99   -0.36    0.00000     0.00  LINEAR    5.14625E-01   175.45    0.00000E+00     0.00
 -120.00    65.00       0.30 -999.99    0.30    0.00000     0.00  LINEAR    5.54895E-01   171.83    0.00000E+00     0.00
 -115.00    65.00       0.85 -999.99    0.85    0.00000     0.00  LINEAR    5.91093E-01   168.72    0.00000E+00     0.00
 -110.00    65.00       1.29 -999.99    1.29    0.00000     0.00  LINEAR    6.22282E-01   166.14    0.00000E+00     0.00
 -105.00    65.00       1.64 -999.99    1.64    0.00000     0.00  LINEAR    6.47590E-01   164.12    0.00000E+00     0.00
 -100.00    65.00       1.89 -999.99    1.89    0.00000     0.00  LINEAR    6.66259E-01   162.66    0.00000E+00     0.00
  -95.00    65.00       2.03 -999.99    2.03    0.00000     0.00  LINEAR    6.77707E-01   161.78    0.00000E+00     0.00
  -90.00    65.00       2.08 -999.99    2.08    0.00000     0.00  LINEAR    6.81565E-01   161.49    0.00000E+00     0.00
  -85.00    65.00       2.03 -999.99    2.03    0.00000     0.00  LINEAR    6.77707E-01   161.78    0.00000E+00     0.00
  -80.00    65.00       1.89 -999.99    1.89    0.00000     0.00  LINEAR    6.66259E-01   162.66    0.00000E+00     0.00
  -75.00    65.00       1.64 -999.99    1.64    0.00000     0.00  LINEAR    6.47590E-01   164.12    0.00000E+00     0.00
  -70.00    65.00       1.29 -999.99    1.29    0.00000     0.00  LINEAR    6.22282E-01   166.14    0.00000E+00     0.00
  -65.00    65.00       0.85 -999.99    0.85    0.00000     0.00  LINEAR    5.91093E-01   168.72    0.00000E+00     0.00
  -60.00    65.00       0.30 -999.99    0.30    0.00000     0.00  LINEAR    5.54895E-01   171.83    0.00000E+00     0.00
  -55.00    65.00      -0.36 -999.99   -0.36    0.00000     0.00  LINEAR    5.14625E-01   175.45    0.00000E+00     0.00
  -50.00    65.00      -1.12 -999.99   -1.12    0.00000     0.00  LINEAR    4.71219E-01   179.55    0.00000E+00     0.00
  -45.00    65.00      -2.01 -999.99   -2.01    0.00000     0.00  LINEAR    4.25567E-01  -175.90    0.00000E+00     0.00
  -40.00    65.00      -3.03 -999.99   -3.03    0.00000     0.00  LINEAR    3.78463E-01  -170.94    0.00000E+00     0.00
  -35.00    65.00      -4.20 -999.99   -4.20    0.00000     0.00  LINEAR    3.30578E-01  -165.60    0.00000E+00     0.00
  -30.00    65.00      -5.57 -999.99   -5.57    0.00000     0.00  LINEAR    2.82440E-01  -159.92    0.00000E+00     0.00
  -25.00    65.00      -7.19 -999.99   -7.19    0.00000     0.00  LINEAR    2.34424E-01  -153.96    0.00000E+00     0.00
  -20.00    65.00      -9.16 -999.99   -9.16    0.00000     0.00  LINEAR    1.86761E-01  -147.75    0.00000E+00     0.00
  -15.00    65.00     -11.69 -999.99  -11.69    0.00000     0.00  LINEAR    1.39548E-01  -141.34    0.00000E+00     0.00
  -10.00    65.00     -15.24 -999.99  -15.24    0.00000     0.00  LINEAR    9.27642E-02  -134.79    0.00000E+00     0.00
   -5.00    65.00     -21.27 -999.99  -21.27    0.00000     0.00  LINEAR    4.63044E-02  -128.14    0.00000E+00     0.00
    0.00    65.00    -999.99 -999.99 -999.99    0.00000     0.00            0.00000E+00     0.00    0.00000E+00     0.00
 -180.00    70.00    -999.99 -999.99 -999.99    0.00000     0.00            5.41437E-12    58.55    0.00000E+00     0.00
 -175.00    70.00     -21.27 -999.99  -21.27    0.00000     0.00  LINEAR    4.63075E-02  -126.87    0.00000E+00     0.00
 -170.00    70.00     -15.24 -999.99  -15.24    0.00000     0.00  LINEAR    9.27731E-02  -132.25    0.00000E+00     0.00
 -165.00    70.00     -11.69 -999.99  -11.69    0.00000     0.00  LINEAR    1.39559E-01  -137.55    0.00000E+00     0.00
 -160.00    70.00      -9.16 -999.99   -9.16    0.00000     0.00  LINEAR    1.86766E-01  -142.74    0.00000E+00     0.00
 -155.00    70.00      -7.19 -999.99   -7.19    0.00000     0.00  LINEAR    2.34408E-01  -147.76    0.00000E+00     0.00
 -150.00    70.00      -5.57 -999.99   -5.57    0.00000     0.00  LINEAR    2.82383E-01  -152.60    0.00000E+00     0.00
 -145.00    70.00      -4.20 -999.99   -4.20    0.00000     0.00  LINEAR    3.30459E-01  -157.19    0.00000E+00     0.00
 -140.00    70.00      -3.03 -999.99   -3.03    0.00000     0.00  LINEAR    3.78257E-01  -161.52    0.00000E+00     0.00
 -135.00    70.00      -2.01 -999.99   -2.01    0.00000     0.00  LINEAR    4.25252E-01  -165.54    0.00000E+00     0.00
 -130.00    70.00      -1.13 -999.99   -1.13    0.00000     0.00  LINEAR    4.70775E-01  -169.23    0.00000E+00     0.00
 -125.00    70.00      -0.37 -999.99   -0.37    0.00000     0.00  LINEAR    5.14037E-01  -172.56    0.00000E+00     0.00
 -120.00    70.00       0.29 -999.99    0.29    0.00000     0.00  LINEAR    5.54155E-01  -175.49    0.00000E+00     0.00
 -115.00    70.00       0.83 -999.99    0.83    0.00000     0.00  LINEAR    5.90202E-01  -178.01    0.00000E+00     0.00
 -110.00    70.00       1.28 -999.99    1.28    0.00000     0.00  LINEAR    6.21250E-01   179.90    0.00000E+00     0.00
 -105.00    70.00       1.62 -999.99    1.62    0.00000     0.00  LINEAR    6.46437E-01   178.25    0.00000E+00     0.00
 -100.00    70.00       1.87 -999.99    1.87    0.00000     0.00  LINEAR    6.65013E-01   177.07    0.00000E+00     0.00
  -95.00    70.00       2.02 -999.99    2.02    0.00000     0.00  LINEAR    6.76402E-01   176.36    0.00000E+00     0.00
  -90.00    70.00       2.07 -999.99    2.07    0.00000     0.00  LINEAR    6.80240E-01   176.12    0.00000E+00     0.00
  -85.00    70.00       2.02 -999.99    2.02    0.00000     0.00  LINEAR    6.76402E-01   176.36    0.00000E+00     0.00
[...]
  -70.00   340.00       1.42 -999.99    1.42    0.00000     0.00  LINEAR    6.31654E-01    78.63    0.00000E+00     0.00
  -65.00   340.00       0.97 -999.99    0.97    0.00000     0.00  LINEAR    5.99648E-01    84.26    0.00000E+00     0.00
  -60.00   340.00       0.42 -999.99    0.42    0.00000     0.00  LINEAR    5.62484E-01    91.05    0.00000E+00     0.00
  -55.00   340.00      -0.25 -999.99   -0.25    0.00000     0.00  LINEAR    5.21130E-01    98.97    0.00000E+00     0.00
  -50.00   340.00      -1.02 -999.99   -1.02    0.00000     0.00  LINEAR    4.76574E-01   107.95    0.00000E+00     0.00
  -45.00   340.00      -1.92 -999.99   -1.92    0.00000     0.00  LINEAR    4.29763E-01   117.94    0.00000E+00     0.00
  -40.00   340.00      -2.96 -999.99   -2.96    0.00000     0.00  LINEAR    3.81559E-01   128.85    0.00000E+00     0.00
  -35.00   340.00      -4.15 -999.99   -4.15    0.00000     0.00  LINEAR    3.32693E-01   140.62    0.00000E+00     0.00
  -30.00   340.00      -5.53 -999.99   -5.53    0.00000     0.00  LINEAR    2.83743E-01   153.15    0.00000E+00     0.00
  -25.00   340.00      -7.16 -999.99   -7.16    0.00000     0.00  LINEAR    2.35116E-01   166.35    0.00000E+00     0.00
  -20.00   340.00      -9.15 -999.99   -9.15    0.00000     0.00  LINEAR    1.87047E-01  -179.89    0.00000E+00     0.00
  -15.00   340.00     -11.69 -999.99  -11.69    0.00000     0.00  LINEAR    1.39611E-01  -165.67    0.00000E+00     0.00
  -10.00   340.00     -15.24 -999.99  -15.24    0.00000     0.00  LINEAR    9.27471E-02  -151.12    0.00000E+00     0.00
   -5.00   340.00     -21.28 -999.99  -21.28    0.00000     0.00  LINEAR    4.62888E-02  -136.33    0.00000E+00     0.00
    0.00   340.00    -999.99 -999.99 -999.99    0.00000     0.00            0.00000E+00     0.00    0.00000E+00     0.00
 -180.00   345.00    -999.99 -999.99 -999.99    0.00000     0.00            5.41437E-12    58.55    0.00000E+00     0.00
 -175.00   345.00     -21.28 -999.99  -21.28    0.00000     0.00  LINEAR    4.62882E-02  -136.75    0.00000E+00     0.00
 -170.00   345.00     -15.24 -999.99  -15.24    0.00000     0.00  LINEAR    9.27481E-02  -151.94    0.00000E+00     0.00
 -165.00   345.00     -11.69 -999.99  -11.69    0.00000     0.00  LINEAR    1.39620E-01  -166.91    0.00000E+00     0.00
 -160.00   345.00      -9.15 -999.99   -9.15    0.00000     0.00  LINEAR    1.87075E-01   178.48    0.00000E+00     0.00
 -155.00   345.00      -7.16 -999.99   -7.16    0.00000     0.00  LINEAR    2.35175E-01   164.34    0.00000E+00     0.00
 -150.00   345.00      -5.53 -999.99   -5.53    0.00000     0.00  LINEAR    2.83844E-01   150.78    0.00000E+00     0.00
 -145.00   345.00      -4.14 -999.99   -4.14    0.00000     0.00  LINEAR    3.32843E-01   137.90    0.00000E+00     0.00
 -140.00   345.00      -2.95 -999.99   -2.95    0.00000     0.00  LINEAR    3.81761E-01   125.82    0.00000E+00     0.00
 -135.00   345.00      -1.92 -999.99   -1.92    0.00000     0.00  LINEAR    4.30017E-01   114.60    0.00000E+00     0.00
 -130.00   345.00      -1.02 -999.99   -1.02    0.00000     0.00  LINEAR    4.76871E-01   104.35    0.00000E+00     0.00
 -125.00   345.00      -0.24 -999.99   -0.24    0.00000     0.00  LINEAR    5.21460E-01    95.12    0.00000E+00     0.00
 -120.00   345.00       0.42 -999.99    0.42    0.00000     0.00  LINEAR    5.62835E-01    86.98    0.00000E+00     0.00
 -115.00   345.00       0.98 -999.99    0.98    0.00000     0.00  LINEAR    6.00009E-01    80.00    0.00000E+00     0.00
 -110.00   345.00       1.43 -999.99    1.43    0.00000     0.00  LINEAR    6.32015E-01    74.22    0.00000E+00     0.00
 -105.00   345.00       1.78 -999.99    1.78    0.00000     0.00  LINEAR    6.57961E-01    69.68    0.00000E+00     0.00
 -100.00   345.00       2.03 -999.99    2.03    0.00000     0.00  LINEAR    6.77084E-01    66.42    0.00000E+00     0.00
  -95.00   345.00       2.17 -999.99    2.17    0.00000     0.00  LINEAR    6.88803E-01    64.45    0.00000E+00     0.00
  -90.00   345.00       2.22 -999.99    2.22    0.00000     0.00  LINEAR    6.92750E-01    63.79    0.00000E+00     0.00
  -85.00   345.00       2.17 -999.99    2.17    0.00000     0.00  LINEAR    6.88803E-01    64.45    0.00000E+00     0.00
  -80.00   345.00       2.03 -999.99    2.03    0.00000     0.00  LINEAR    6.77084E-01    66.42    0.00000E+00     0.00
  -75.00   345.00       1.78 -999.99    1.78    0.00000     0.00  LINEAR    6.57961E-01    69.68    0.00000E+00     0.00
  -70.00   345.00       1.43 -999.99    1.43    0.00000     0.00  LINEAR    6.32015E-01    74.22    0.00000E+00     0.00
  -65.00   345.00       0.98 -999.99    0.98    0.00000     0.00  LINEAR    6.00009E-01    80.00    0.00000E+00     0.00
  -60.00   345.00       0.42 -999.99    0.42    0.00000     0.00  LINEAR    5.62835E-01    86.98    0.00000E+00     0.00
  -55.00   345.00      -0.24 -999.99   -0.24    0.00000     0.00  LINEAR    5.21460E-01    95.12    0.00000E+00     0.00
  -50.00   345.00      -1.02 -999.99   -1.02    0.00000     0.00  LINEAR    4.76871E-01   104.35    0.00000E+00     0.00
  -45.00   345.00      -1.92 -999.99   -1.92    0.00000     0.00  LINEAR    4.30017E-01   114.60    0.00000E+00     0.00
  -40.00   345.00      -2.95 -999.99   -2.95    0.00000     0.00  LINEAR    3.81761E-01   125.82    0.00000E+00     0.00
  -35.00   345.00      -4.14 -999.99   -4.14    0.00000     0.00  LINEAR    3.32843E-01   137.90    0.00000E+00     0.00
  -30.00   345.00      -5.53 -999.99   -5.53    0.00000     0.00  LINEAR    2.83844E-01   150.78    0.00000E+00     0.00
  -25.00   345.00      -7.16 -999.99   -7.16    0.00000     0.00  LINEAR    2.35175E-01   164.34    0.00000E+00     0.00
  -20.00   345.00      -9.15 -999.99   -9.15    0.00000     0.00  LINEAR    1.87075E-01   178.48    0.00000E+00     0.00
  -15.00   345.00     -11.69 -999.99  -11.69    0.00000     0.00  LINEAR    1.39620E-01  -166.91    0.00000E+00     0.00
  -10.00   345.00     -15.24 -999.99  -15.24    0.00000     0.00  LINEAR    9.27481E-02  -151.94    0.00000E+00     0.00
   -5.00   345.00     -21.28 -999.99  -21.28    0.00000     0.00  LINEAR    4.62882E-02  -136.75    0.00000E+00     0.00
    0.00   345.00    -999.99 -999.99 -999.99    0.00000     0.00            0.00000E+00     0.00    0.00000E+00     0.00
 -180.00   350.00    -999.99 -999.99 -999.99    0.00000     0.00            5.41437E-12    58.55    0.00000E+00     0.00
 -175.00   350.00     -21.28 -999.99  -21.28    0.00000     0.00  LINEAR    4.62878E-02  -137.05    0.00000E+00     0.00
 -170.00   350.00     -15.24 -999.99  -15.24    0.00000     0.00  LINEAR    9.27489E-02  -152.54    0.00000E+00     0.00
 -165.00   350.00     -11.69 -999.99  -11.69    0.00000     0.00  LINEAR    1.39627E-01  -167.80    0.00000E+00     0.00
 -160.00   350.00      -9.15 -999.99   -9.15    0.00000     0.00  LINEAR    1.87096E-01   177.31    0.00000E+00     0.00
 -155.00   350.00      -7.16 -999.99   -7.16    0.00000     0.00  LINEAR    2.35218E-01   162.89    0.00000E+00     0.00
 -150.00   350.00      -5.52 -999.99   -5.52    0.00000     0.00  LINEAR    2.83917E-01   149.07    0.00000E+00     0.00
 -145.00   350.00      -4.14 -999.99   -4.14    0.00000     0.00  LINEAR    3.32952E-01   135.95    0.00000E+00     0.00
 -140.00   350.00      -2.95 -999.99   -2.95    0.00000     0.00  LINEAR    3.81908E-01   123.63    0.00000E+00     0.00
 -135.00   350.00      -1.91 -999.99   -1.91    0.00000     0.00  LINEAR    4.30198E-01   112.20    0.00000E+00     0.00
 -130.00   350.00      -1.02 -999.99   -1.02    0.00000     0.00  LINEAR    4.77081E-01   101.75    0.00000E+00     0.00
 -125.00   350.00      -0.24 -999.99   -0.24    0.00000     0.00  LINEAR    5.21691E-01    92.35    0.00000E+00     0.00
 -120.00   350.00       0.42 -999.99    0.42    0.00000     0.00  LINEAR    5.63077E-01    84.06    0.00000E+00     0.00
 -115.00   350.00       0.98 -999.99    0.98    0.00000     0.00  LINEAR    6.00254E-01    76.94    0.00000E+00     0.00
 -110.00   350.00       1.43 -999.99    1.43    0.00000     0.00  LINEAR    6.32257E-01    71.05    0.00000E+00     0.00
 -105.00   350.00       1.78 -999.99    1.78    0.00000     0.00  LINEAR    6.58195E-01    66.43    0.00000E+00     0.00
 -100.00   350.00       2.03 -999.99    2.03    0.00000     0.00  LINEAR    6.77311E-01    63.10    0.00000E+00     0.00
  -95.00   350.00       2.18 -999.99    2.18    0.00000     0.00  LINEAR    6.89023E-01    61.09    0.00000E+00     0.00
  -90.00   350.00       2.23 -999.99    2.23    0.00000     0.00  LINEAR    6.92969E-01    60.42    0.00000E+00     0.00
  -85.00   350.00       2.18 -999.99    2.18    0.00000     0.00  LINEAR    6.89023E-01    61.09    0.00000E+00     0.00
  -80.00   350.00       2.03 -999.99    2.03    0.00000     0.00  LINEAR    6.77311E-01    63.10    0.00000E+00     0.00
  -75.00   350.00       1.78 -999.99    1.78    0.00000     0.00  LINEAR    6.58195E-01    66.43    0.00000E+00     0.00
  -70.00   350.00       1.43 -999.99    1.43    0.00000     0.00  LINEAR    6.32257E-01    71.05    0.00000E+00     0.00
  -65.00   350.00       0.98 -999.99    0.98    0.00000     0.00  LINEAR    6.00254E-01    76.94    0.00000E+00     0.00
  -60.00   350.00       0.42 -999.99    0.42    0.00000     0.00  LINEAR    5.63077E-01    84.06    0.00000E+00     0.00
  -55.00   350.00      -0.24 -999.99   -0.24    0.00000     0.00  LINEAR    5.21691E-01    92.35    0.00000E+00     0.00
  -50.00   350.00      -1.02 -999.99   -1.02    0.00000     0.00  LINEAR    4.77081E-01   101.75    0.00000E+00     0.00
  -45.00   350.00      -1.91 -999.99   -1.91    0.00000     0.00  LINEAR    4.30198E-01   112.20    0.00000E+00     0.00
  -40.00   350.00      -2.95 -999.99   -2.95    0.00000     0.00  LINEAR    3.81908E-01   123.63    0.00000E+00     0.00
  -35.00   350.00      -4.14 -999.99   -4.14    0.00000     0.00  LINEAR    3.32952E-01   135.95    0.00000E+00     0.00
  -30.00   350.00      -5.52 -999.99   -5.52    0.00000     0.00  LINEAR    2.83917E-01   149.07    0.00000E+00     0.00
  -25.00   350.00      -7.16 -999.99   -7.16    0.00000     0.00  LINEAR    2.35218E-01   162.89    0.00000E+00     0.00
  -20.00   350.00      -9.15 -999.99   -9.15    0.00000     0.00  LINEAR    1.87096E-01   177.31    0.00000E+00     0.00
  -15.00   350.00     -11.69 -999.99  -11.69    0.00000     0.00  LINEAR    1.39627E-01  -167.80    0.00000E+00     0.00
  -10.00   350.00     -15.24 -999.99  -15.24    0.00000     0.00  LINEAR    9.27489E-02  -152.54    0.00000E+00     0.00
   -5.00   350.00     -21.28 -999.99  -21.28    0.00000     0.00  LINEAR    4.62878E-02  -137.05    0.00000E+00     0.00
    0.00   350.00    -999.99 -999.99 -999.99    0.00000     0.00            0.00000E+00     0.00    0.00000E+00     0.00
 -180.00   355.00    -999.99 -999.99 -999.99    0.00000     0.00            5.41437E-12    58.55    0.00000E+00     0.00
 -175.00   355.00     -21.28 -999.99  -21.28    0.00000     0.00  LINEAR    4.62876E-02  -137.23    0.00000E+00     0.00
 -170.00   355.00     -15.24 -999.99  -15.24    0.00000     0.00  LINEAR    9.27495E-02  -152.90    0.00000E+00     0.00
 -165.00   355.00     -11.69 -999.99  -11.69    0.00000     0.00  LINEAR    1.39632E-01  -168.33    0.00000E+00     0.00
 -160.00   355.00      -9.15 -999.99   -9.15    0.00000     0.00  LINEAR    1.87109E-01   176.60    0.00000E+00     0.00
 -155.00   355.00      -7.16 -999.99   -7.16    0.00000     0.00  LINEAR    2.35245E-01   162.02    0.00000E+00     0.00
 -150.00   355.00      -5.52 -999.99   -5.52    0.00000     0.00  LINEAR    2.83962E-01   148.04    0.00000E+00     0.00
 -145.00   355.00      -4.14 -999.99   -4.14    0.00000     0.00  LINEAR    3.33018E-01   134.77    0.00000E+00     0.00
 -140.00   355.00      -2.95 -999.99   -2.95    0.00000     0.00  LINEAR    3.81996E-01   122.31    0.00000E+00     0.00
 -135.00   355.00      -1.91 -999.99   -1.91    0.00000     0.00  LINEAR    4.30306E-01   110.75    0.00000E+00     0.00
 -130.00   355.00      -1.01 -999.99   -1.01    0.00000     0.00  LINEAR    4.77205E-01   100.18    0.00000E+00     0.00
 -125.00   355.00      -0.24 -999.99   -0.24    0.00000     0.00  LINEAR    5.21827E-01    90.67    0.00000E+00     0.00
 -120.00   355.00       0.43 -999.99    0.43    0.00000     0.00  LINEAR    5.63218E-01    82.29    0.00000E+00     0.00
 -115.00   355.00       0.98 -999.99    0.98    0.00000     0.00  LINEAR    6.00396E-01    75.10    0.00000E+00     0.00
 -110.00   355.00       1.43 -999.99    1.43    0.00000     0.00  LINEAR    6.32394E-01    69.14    0.00000E+00     0.00
 -105.00   355.00       1.78 -999.99    1.78    0.00000     0.00  LINEAR    6.58327E-01    64.47    0.00000E+00     0.00
 -100.00   355.00       2.03 -999.99    2.03    0.00000     0.00  LINEAR    6.77437E-01    61.10    0.00000E+00     0.00
  -95.00   355.00       2.18 -999.99    2.18    0.00000     0.00  LINEAR    6.89145E-01    59.07    0.00000E+00     0.00
  -90.00   355.00       2.23 -999.99    2.23    0.00000     0.00  LINEAR    6.93089E-01    58.39    0.00000E+00     0.00
  -85.00   355.00       2.18 -999.99    2.18    0.00000     0.00  LINEAR    6.89145E-01    59.07    0.00000E+00     0.00
  -80.00   355.00       2.03 -999.99    2.03    0.00000     0.00  LINEAR    6.77437E-01    61.10    0.00000E+00     0.00
  -75.00   355.00       1.78 -999.99    1.78    0.00000     0.00  LINEAR    6.58327E-01    64.47    0.00000E+00     0.00
  -70.00   355.00       1.43 -999.99    1.43    0.00000     0.00  LINEAR    6.32394E-01    69.14    0.00000E+00     0.00
  -65.00   355.00       0.98 -999.99    0.98    0.00000     0.00  LINEAR    6.00396E-01    75.10    0.00000E+00     0.00
  -60.00   355.00       0.43 -999.99    0.43    0.00000     0.00  LINEAR    5.63218E-01    82.29    0.00000E+00     0.00
  -55.00   355.00      -0.24 -999.99   -0.24    0.00000     0.00  LINEAR    5.21827E-01    90.67    0.00000E+00     0.00
  -50.00   355.00      -1.01 -999.99   -1.01    0.00000     0.00  LINEAR    4.77205E-01   100.18    0.00000E+00     0.00
  -45.00   355.00      -1.91 -999.99   -1.91    0.00000     0.00  LINEAR    4.30306E-01   110.75    0.00000E+00     0.00
  -40.00   355.00      -2.95 -999.99   -2.95    0.00000     0.00  LINEAR    3.81996E-01   122.31    0.00000E+00     0.00
  -35.00   355.00      -4.14 -999.99   -4.14    0.00000     0.00  LINEAR    3.33018E-01   134.77    0.00000E+00     0.00
  -30.00   355.00      -5.52 -999.99   -5.52    0.00000     0.00  LINEAR    2.83962E-01   148.04    0.00000E+00     0.00
  -25.00   355.00      -7.16 -999.99   -7.16    0.00000     0.00  LINEAR    2.35245E-01   162.02    0.00000E+00     0.00
  -20.00   355.00      -9.15 -999.99   -9.15    0.00000     0.00  LINEAR    1.87109E-01   176.60    0.00000E+00     0.00
  -15.00   355.00     -11.69 -999.99  -11.69    0.00000     0.00  LINEAR    1.39632E-01  -168.33    0.00000E+00     0.00
  -10.00   355.00     -15.24 -999.99  -15.24    0.00000     0.00  LINEAR    9.27495E-02  -152.90    0.00000E+00     0.00
   -5.00   355.00     -21.28 -999.99  -21.28    0.00000     0.00  LINEAR    4.62876E-02  -137.23    0.00000E+00     0.00
    0.00   355.00    -999.99 -999.99 -999.99    0.00000     0.00            0.00000E+00     0.00    0.00000E+00     0.00
 -180.00   360.00    -999.99 -999.99 -999.99    0.00000     0.00            5.41437E-12    58.55    0.00000E+00     0.00
 -175.00   360.00     -21.28 -999.99  -21.28    0.00000     0.00  LINEAR    4.62875E-02  -137.29    0.00000E+00     0.00
 -170.00   360.00     -15.24 -999.99  -15.24    0.00000     0.00  LINEAR    9.27497E-02  -153.02    0.00000E+00     0.00
 -165.00   360.00     -11.69 -999.99  -11.69    0.00000     0.00  LINEAR    1.39633E-01  -168.51    0.00000E+00     0.00
 -160.00   360.00      -9.15 -999.99   -9.15    0.00000     0.00  LINEAR    1.87113E-01   176.36    0.00000E+00     0.00
 -155.00   360.00      -7.16 -999.99   -7.16    0.00000     0.00  LINEAR    2.35254E-01   161.73    0.00000E+00     0.00
 -150.00   360.00      -5.52 -999.99   -5.52    0.00000     0.00  LINEAR    2.83977E-01   147.69    0.00000E+00     0.00
 -145.00   360.00      -4.14 -999.99   -4.14    0.00000     0.00  LINEAR    3.33040E-01   134.37    0.00000E+00     0.00
 -140.00   360.00      -2.95 -999.99   -2.95    0.00000     0.00  LINEAR    3.82025E-01   121.87    0.00000E+00     0.00
 -135.00   360.00      -1.91 -999.99   -1.91    0.00000     0.00  LINEAR    4.30342E-01   110.27    0.00000E+00     0.00
 -130.00   360.00      -1.01 -999.99   -1.01    0.00000     0.00  LINEAR    4.77247E-01    99.66    0.00000E+00     0.00
 -125.00   360.00      -0.24 -999.99   -0.24    0.00000     0.00  LINEAR    5.21871E-01    90.12    0.00000E+00     0.00
 -120.00   360.00       0.43 -999.99    0.43    0.00000     0.00  LINEAR    5.63265E-01    81.70    0.00000E+00     0.00
 -115.00   360.00       0.98 -999.99    0.98    0.00000     0.00  LINEAR    6.00442E-01    74.48    0.00000E+00     0.00
 -110.00   360.00       1.43 -999.99    1.43    0.00000     0.00  LINEAR    6.32439E-01    68.50    0.00000E+00     0.00
 -105.00   360.00       1.78 -999.99    1.78    0.00000     0.00  LINEAR    6.58370E-01    63.81    0.00000E+00     0.00
 -100.00   360.00       2.03 -999.99    2.03    0.00000     0.00  LINEAR    6.77477E-01    60.43    0.00000E+00     0.00
  -95.00   360.00       2.18 -999.99    2.18    0.00000     0.00  LINEAR    6.89184E-01    58.40    0.00000E+00     0.00
  -90.00   360.00       2.23 -999.99    2.23    0.00000     0.00  LINEAR    6.93128E-01    57.71    0.00000E+00     0.00
  -85.00   360.00       2.18 -999.99    2.18    0.00000     0.00  LINEAR    6.89184E-01    58.40    0.00000E+00     0.00
  -80.00   360.00       2.03 -999.99    2.03    0.00000     0.00  LINEAR    6.77477E-01    60.43    0.00000E+00     0.00
  -75.00   360.00       1.78 -999.99    1.78    0.00000     0.00  LINEAR    6.58370E-01    63.81    0.00000E+00     0.00
  -70.00   360.00       1.43 -999.99    1.43    0.00000     0.00  LINEAR    6.32439E-01    68.50    0.00000E+00     0.00
  -65.00   360.00       0.98 -999.99    0.98    0.00000     0.00  LINEAR    6.00442E-01    74.48    0.00000E+00     0.00
  -60.00   360.00       0.43 -999.99    0.43    0.00000     0.00  LINEAR    5.63265E-01    81.70    0.00000E+00     0.00
  -55.00   360.00      -0.24 -999.99   -0.24    0.00000     0.00  LINEAR    5.21871E-01    90.12    0.00000E+00     0.00
  -50.00   360.00      -1.01 -999.99   -1.01    0.00000     0.00  LINEAR    4.77247E-01    99.66    0.00000E+00     0.00
  -45.00   360.00      -1.91 -999.99   -1.91    0.00000     0.00  LINEAR    4.30342E-01   110.27    0.00000E+00     0.00
  -40.00   360.00      -2.95 -999.99   -2.95    0.00000     0.00  LINEAR    3.82025E-01   121.87    0.00000E+00     0.00
  -35.00   360.00      -4.14 -999.99   -4.14    0.00000     0.00  LINEAR    3.33040E-01   134.37    0.00000E+00     0.00
  -30.00   360.00      -5.52 -999.99   -5.52    0.00000     0.00  LINEAR    2.83977E-01   147.69    0.00000E+00     0.00
  -25.00   360.00      -7.16 -999.99   -7.16    0.00000     0.00  LINEAR    2.35254E-01   161.73    0.00000E+00     0.00
  -20.00   360.00      -9.15 -999.99   -9.15    0.00000     0.00  LINEAR    1.87113E-01   176.36    0.00000E+00     0.00
  -15.00   360.00     -11.69 -999.99  -11.69    0.00000     0.00  LINEAR    1.39633E-01  -168.51    0.00000E+00     0.00
  -10.00   360.00     -15.24 -999.99  -15.24    0.00000     0.00  LINEAR    9.27497E-02  -153.02    0.00000E+00     0.00
   -5.00   360.00     -21.28 -999.99  -21.28    0.00000     0.00  LINEAR    4.62875E-02  -137.29    0.00000E+00     0.00
    0.00   360.00    -999.99 -999.99 -999.99    0.00000     0.00            0.00000E+00     0.00    0.00000E+00     0.00


   AVERAGE POWER GAIN= 9.98899E-01       SOLID ANGLE USED IN AVERAGING=( 4.0000)*PI STERADIANS.








 ***** DATA CARD NO.  7   EN   0    37    73  1003 -1.80000E+02  0.00000E+00  5.00000E+00  5.00000E+00  0.00000E+00  0.00000E+00

 RUN TIME =     0.234
