1



                                 *********************************************

                                    NUMERICAL ELECTROMAGNETICS CODE (NEC-2D)

                                 *********************************************




                                     - - - - COMMENTS - - - -


                          Example 2 :	Loaded dipole in free space                                    
                          		See GetStarted.txt                                                       
                                                                                                     
                                                                                                     
                                                                                                     
                                                                                                     
                                                                                                     




                                 - - - STRUCTURE SPECIFICATION - - -

                                     COORDINATES MUST BE INPUT IN
                                     METERS OR BE SCALED TO METERS
                                     BEFORE STRUCTURE INPUT IS ENDED


  WIRE                                                                               NO. OF    FIRST  LAST     TAG
  NO.        X1         Y1         Z1          X2         Y2         Z2      RADIUS   SEG.     SEG.   SEG.     NO.
     1    0.00000   -4.99667    0.00000     0.00000    4.99667    0.00000    0.00005     21        1    21       1

   TOTAL SEGMENTS USED=   21     NO. SEG. IN A SYMMETRIC CELL=   21     SYMMETRY FLAG=  0


         - MULTIPLE WIRE JUNCTIONS -
 JUNCTION    SEGMENTS  (- FOR END 1, + FOR END 2)
  NONE




                                 - - - - SEGMENTATION DATA - - - -

                                        COORDINATES IN METERS

                         I+ AND I- INDICATE THE SEGMENTS BEFORE AND AFTER I


  SEG.   COORDINATES OF SEG. CENTER     SEG.     ORIENTATION ANGLES    WIRE    CONNECTION DATA   TAG
  NO.       X         Y         Z       LENGTH     ALPHA     BETA      RADIUS    I-   I    I+    NO.
     1   0.00000  -4.75874   0.00000   0.47587    0.00000  90.00000   0.00005     0    1    2      1
     2   0.00000  -4.28286   0.00000   0.47587    0.00000  90.00000   0.00005     1    2    3      1
     3   0.00000  -3.80699   0.00000   0.47587    0.00000  90.00000   0.00005     2    3    4      1
     4   0.00000  -3.33112   0.00000   0.47587    0.00000  90.00000   0.00005     3    4    5      1
     5   0.00000  -2.85524   0.00000   0.47587    0.00000  90.00000   0.00005     4    5    6      1
     6   0.00000  -2.37937   0.00000   0.47587    0.00000  90.00000   0.00005     5    6    7      1
     7   0.00000  -1.90350   0.00000   0.47587    0.00000  90.00000   0.00005     6    7    8      1
     8   0.00000  -1.42762   0.00000   0.47587    0.00000  90.00000   0.00005     7    8    9      1
     9   0.00000  -0.95175   0.00000   0.47587    0.00000  90.00000   0.00005     8    9   10      1
    10   0.00000  -0.47587   0.00000   0.47587    0.00000  90.00000   0.00005     9   10   11      1
    11   0.00000   0.00000   0.00000   0.47587    0.00000  90.00000   0.00005    10   11   12      1
    12   0.00000   0.47587   0.00000   0.47587    0.00000  90.00000   0.00005    11   12   13      1
    13   0.00000   0.95175   0.00000   0.47587    0.00000  90.00000   0.00005    12   13   14      1
    14   0.00000   1.42762   0.00000   0.47587    0.00000  90.00000   0.00005    13   14   15      1
    15   0.00000   1.90350   0.00000   0.47587    0.00000  90.00000   0.00005    14   15   16      1
    16   0.00000   2.37937   0.00000   0.47587    0.00000  90.00000   0.00005    15   16   17      1
    17   0.00000   2.85524   0.00000   0.47587    0.00000  90.00000   0.00005    16   17   18      1
    18   0.00000   3.33112   0.00000   0.47587    0.00000  90.00000   0.00005    17   18   19      1
    19   0.00000   3.80699   0.00000   0.47587    0.00000  90.00000   0.00005    18   19   20      1
    20   0.00000   4.28286   0.00000   0.47587    0.00000  90.00000   0.00005    19   20   21      1
    21   0.00000   4.75874   0.00000   0.47587    0.00000  90.00000   0.00005    20   21    0      1






 ***** DATA CARD NO.  1   GN  -1     0     0     0  0.00000E+00  0.00000E+00  0.00000E+00  0.00000E+00  0.00000E+00  0.00000E+00
 ***** DATA CARD NO.  2   EK   0     0     0     0  0.00000E+00  0.00000E+00  0.00000E+00  0.00000E+00  0.00000E+00  0.00000E+00
 ***** DATA CARD NO.  3   EX   0     1    11     0  1.00000E+00  0.00000E+00  0.00000E+00  0.00000E+00  0.00000E+00  0.00000E+00
 ***** DATA CARD NO.  4   FR   0     0     0     0  1.50100E+01  0.00000E+00  0.00000E+00  0.00000E+00  0.00000E+00  0.00000E+00
 ***** DATA CARD NO.  5   RP   0    37    73  1003 -1.80000E+02  0.00000E+00  5.00000E+00  5.00000E+00  0.00000E+00  0.00000E+00




                                 - - - - - - FREQUENCY - - - - - -

                                    FREQUENCY= 1.5010E+01 MHZ
                                    WAVELENGTH= 1.9973E+01 METERS




                    APPROXIMATE INTEGRATION EMPLOYED FOR SEGMENTS MORE THAN   1.000 WAVELENGTHS APART

                    THE EXTENDED THIN WIRE KERNEL WILL BE USED



                               - - - STRUCTURE IMPEDANCE LOADING - - -

                                   THIS STRUCTURE IS NOT LOADED



                                  - - - ANTENNA ENVIRONMENT - - -

                                            FREE SPACE



                                - - - MATRIX TIMING - - -

                        FILL=    0.016 SEC.,  FACTOR=    0.000 SEC.



                                          - - - ANTENNA INPUT PARAMETERS - - -

   TAG   SEG.    VOLTAGE (VOLTS)         CURRENT (AMPS)         IMPEDANCE (OHMS)        ADMITTANCE (MHOS)      POWER
   NO.   NO.    REAL        IMAG.       REAL        IMAG.       REAL        IMAG.       REAL        IMAG.     (WATTS)
     1    11 1.00000E+00 0.00000E+00 9.63339E-03-5.66041E-03 7.71644E+01 4.53404E+01 9.63339E-03-5.66041E-03 4.81669E-03



                             - - - CURRENTS AND LOCATION - - -

                                 DISTANCES IN WAVELENGTHS


  SEG.  TAG    COORD. OF SEG. CENTER     SEG.            - - - CURRENT (AMPS) - - -
  NO.   NO.     X        Y        Z      LENGTH     REAL        IMAG.       MAG.        PHASE
     1    1   0.0000  -0.2383   0.0000  0.02383   8.0397E-04 -5.3212E-04  9.6411E-04  -33.499
     2    1   0.0000  -0.2144   0.0000  0.02383   2.2859E-03 -1.5011E-03  2.7347E-03  -33.292
     3    1   0.0000  -0.1906   0.0000  0.02383   3.6672E-03 -2.3882E-03  4.3763E-03  -33.074
     4    1   0.0000  -0.1668   0.0000  0.02383   4.9503E-03 -3.1953E-03  5.8920E-03  -32.842
     5    1   0.0000  -0.1430   0.0000  0.02383   6.1164E-03 -3.9104E-03  7.2596E-03  -32.592
     6    1   0.0000  -0.1191   0.0000  0.02383   7.1449E-03 -4.5205E-03  8.4549E-03  -32.321
     7    1   0.0000  -0.0953   0.0000  0.02383   8.0161E-03 -5.0134E-03  9.4547E-03  -32.023
     8    1   0.0000  -0.0715   0.0000  0.02383   8.7127E-03 -5.3785E-03  1.0239E-02  -31.688
     9    1   0.0000  -0.0477   0.0000  0.02383   9.2206E-03 -5.6074E-03  1.0792E-02  -31.305
    10    1   0.0000  -0.0238   0.0000  0.02383   9.5297E-03 -5.6923E-03  1.1100E-02  -30.851
    11    1   0.0000   0.0000   0.0000  0.02383   9.6334E-03 -5.6604E-03  1.1173E-02  -30.438
    12    1   0.0000   0.0238   0.0000  0.02383   9.5297E-03 -5.6923E-03  1.1100E-02  -30.851
    13    1   0.0000   0.0477   0.0000  0.02383   9.2207E-03 -5.6074E-03  1.0792E-02  -31.305
    14    1   0.0000   0.0715   0.0000  0.02383   8.7127E-03 -5.3785E-03  1.0239E-02  -31.688
    15    1   0.0000   0.0953   0.0000  0.02383   8.0161E-03 -5.0134E-03  9.4547E-03  -32.023
    16    1   0.0000   0.1191   0.0000  0.02383   7.1449E-03 -4.5205E-03  8.4549E-03  -32.321
    17    1   0.0000   0.1430   0.0000  0.02383   6.1164E-03 -3.9104E-03  7.2596E-03  -32.592
    18    1   0.0000   0.1668   0.0000  0.02383   4.9503E-03 -3.1953E-03  5.8920E-03  -32.842
    19    1   0.0000   0.1906   0.0000  0.02383   3.6672E-03 -2.3882E-03  4.3763E-03  -33.074
    20    1   0.0000   0.2144   0.0000  0.02383   2.2859E-03 -1.5011E-03  2.7347E-03  -33.292
    21    1   0.0000   0.2383   0.0000  0.02383   8.0397E-04 -5.3212E-04  9.6411E-04  -33.499



                                        - - - POWER BUDGET - - -

                                           INPUT POWER   = 4.8167E-03 WATTS
                                           RADIATED POWER= 4.8167E-03 WATTS
                                           STRUCTURE LOSS= 0.0000E+00 WATTS
                                           NETWORK LOSS  = 0.0000E+00 WATTS
                                           EFFICIENCY    = 100.00 PERCENT



                                                - - - RADIATION PATTERNS - - -

  - - ANGLES - -           - POWER GAINS -       - - - POLARIZATION - - -    - - - E(THETA) - - -    - - - E(PHI) - - -
  THETA     PHI        VERT.   HOR.    TOTAL      AXIAL     TILT   SENSE     MAGNITUDE    PHASE      MAGNITUDE    PHASE 
 DEGREES  DEGREES       DB      DB      DB        RATIO     DEG.              VOLTS/M    DEGREES      VOLTS/M    DEGREES
 -180.00     0.00    -999.99    2.16    2.16    0.00000   -90.00  LINEAR    0.00000E+00     0.00    6.89012E-01  -121.86
 -175.00     0.00    -999.99    2.16    2.16    0.00000   -90.00  LINEAR    0.00000E+00     0.00    6.89012E-01  -121.86
 -170.00     0.00    -999.99    2.16    2.16    0.00000   -90.00  LINEAR    0.00000E+00     0.00    6.89012E-01  -121.86
 -165.00     0.00    -999.99    2.16    2.16    0.00000   -90.00  LINEAR    0.00000E+00     0.00    6.89012E-01  -121.86
 -160.00     0.00    -999.99    2.16    2.16    0.00000   -90.00  LINEAR    0.00000E+00     0.00    6.89012E-01  -121.86
 -155.00     0.00    -999.99    2.16    2.16    0.00000   -90.00  LINEAR    0.00000E+00     0.00    6.89012E-01  -121.86
 -150.00     0.00    -999.99    2.16    2.16    0.00000   -90.00  LINEAR    0.00000E+00     0.00    6.89012E-01  -121.86
 -145.00     0.00    -999.99    2.16    2.16    0.00000   -90.00  LINEAR    0.00000E+00     0.00    6.89012E-01  -121.86
 -140.00     0.00    -999.99    2.16    2.16    0.00000   -90.00  LINEAR    0.00000E+00     0.00    6.89012E-01  -121.86
 -135.00     0.00    -999.99    2.16    2.16    0.00000   -90.00  LINEAR    0.00000E+00     0.00    6.89012E-01  -121.86
 -130.00     0.00    -999.99    2.16    2.16    0.00000   -90.00  LINEAR    0.00000E+00     0.00    6.89012E-01  -121.86
 -125.00     0.00    -999.99    2.16    2.16    0.00000   -90.00  LINEAR    0.00000E+00     0.00    6.89012E-01  -121.86
 -120.00     0.00    -999.99    2.16    2.16    0.00000   -90.00  LINEAR    0.00000E+00     0.00    6.89012E-01  -121.86
 -115.00     0.00    -999.99    2.16    2.16    0.00000   -90.00  LINEAR    0.00000E+00     0.00    6.89012E-01  -121.86
 -110.00     0.00    -999.99    2.16    2.16    0.00000   -90.00  LINEAR    0.00000E+00     0.00    6.89012E-01  -121.86
 -105.00     0.00    -999.99    2.16    2.16    0.00000   -90.00  LINEAR    0.00000E+00     0.00    6.89012E-01  -121.86
 -100.00     0.00    -999.99    2.16    2.16    0.00000   -90.00  LINEAR    0.00000E+00     0.00    6.89012E-01  -121.86
  -95.00     0.00    -999.99    2.16    2.16    0.00000   -90.00  LINEAR    0.00000E+00     0.00    6.89012E-01  -121.86
  -90.00     0.00    -999.99    2.16    2.16    0.00000   -90.00  LINEAR    0.00000E+00     0.00    6.89012E-01  -121.86
  -85.00     0.00    -999.99    2.16    2.16    0.00000   -90.00  LINEAR    0.00000E+00     0.00    6.89012E-01  -121.86
  -80.00     0.00    -999.99    2.16    2.16    0.00000   -90.00  LINEAR    0.00000E+00     0.00    6.89012E-01  -121.86
  -75.00     0.00    -999.99    2.16    2.16    0.00000   -90.00  LINEAR    0.00000E+00     0.00    6.89012E-01  -121.86
  -70.00     0.00    -999.99    2.16    2.16    0.00000   -90.00  LINEAR    0.00000E+00     0.00    6.89012E-01  -121.86
  -65.00     0.00    -999.99    2.16    2.16    0.00000   -90.00  LINEAR    0.00000E+00     0.00    6.89012E-01  -121.86
  -60.00     0.00    -999.99    2.16    2.16    0.00000   -90.00  LINEAR    0.00000E+00     0.00    6.89012E-01  -121.86
  -55.00     0.00    -999.99    2.16    2.16    0.00000   -90.00  LINEAR    0.00000E+00     0.00    6.89012E-01  -121.86
  -50.00     0.00    -999.99    2.16    2.16    0.00000   -90.00  LINEAR    0.00000E+00     0.00    6.89012E-01  -121.86
  -45.00     0.00    -999.99    2.16    2.16    0.00000   -90.00  LINEAR    0.00000E+00     0.00    6.89012E-01  -121.86
  -40.00     0.00    -999.99    2.16    2.16    0.00000   -90.00  LINEAR    0.00000E+00     0.00    6.89012E-01  -121.86
  -35.00     0.00    -999.99    2.16    2.16    0.00000   -90.00  LINEAR    0.00000E+00     0.00    6.89012E-01  -121.86
  -30.00     0.00    -999.99    2.16    2.16    0.00000   -90.00  LINEAR    0.00000E+00     0.00    6.89012E-01  -121.86
  -25.00     0.00    -999.99    2.16    2.16    0.00000   -90.00  LINEAR    0.00000E+00     0.00    6.89012E-01  -121.86
  -20.00     0.00    -999.99    2.16    2.16    0.00000   -90.00  LINEAR    0.00000E+00     0.00    6.89012E-01  -121.86
  -15.00     0.00    -999.99    2.16    2.16    0.00000   -90.00  LINEAR    0.00000E+00     0.00    6.89012E-01  -121.86
  -10.00     0.00    -999.99    2.16    2.16    0.00000   -90.00  LINEAR    0.00000E+00     0.00    6.89012E-01  -121.86
   -5.00     0.00    -999.99    2.16    2.16    0.00000   -90.00  LINEAR    0.00000E+00     0.00    6.89012E-01  -121.86
    0.00     0.00    -999.99    2.16    2.16    0.00000   -90.00  LINEAR    0.00000E+00     0.00    6.89012E-01  -121.86
 -180.00     5.00     -19.04    2.13    2.16    0.00000   -85.00  LINEAR    6.00513E-02    58.14    6.86390E-01  -121.86
 -175.00     5.00     -19.07    2.13    2.16    0.00000   -85.02  LINEAR    5.98220E-02    58.14    6.86380E-01  -121.86
 -170.00     5.00     -19.17    2.12    2.16    0.00000   -85.08  LINEAR    5.91357E-02    58.14    6.86352E-01  -121.86
 -165.00     5.00     -19.34    2.12    2.16    0.00000   -85.17  LINEAR    5.79980E-02    58.14    6.86306E-01  -121.86
 -160.00     5.00     -19.58    2.12    2.15    0.00000   -85.30  LINEAR    5.64177E-02    58.14    6.86243E-01  -121.86
 -155.00     5.00     -19.89    2.12    2.15    0.00000   -85.47  LINEAR    5.44072E-02    58.14    6.86166E-01  -121.86
 -150.00     5.00     -20.29    2.12    2.15    0.00000   -85.67  LINEAR    5.19822E-02    58.14    6.86076E-01  -121.86
 -145.00     5.00     -20.77    2.12    2.14    0.00000   -85.90  LINEAR    4.91616E-02    58.14    6.85977E-01  -121.86
 -140.00     5.00     -21.36    2.12    2.14    0.00000   -86.17  LINEAR    4.59673E-02    58.14    6.85872E-01  -121.86
 -135.00     5.00     -22.05    2.12    2.13    0.00000   -86.46  LINEAR    4.24239E-02    58.14    6.85763E-01  -121.86
 -130.00     5.00     -22.88    2.12    2.13    0.00000   -86.78  LINEAR    3.85589E-02    58.14    6.85654E-01  -121.86
 -125.00     5.00     -23.87    2.11    2.13    0.00000   -87.13  LINEAR    3.44018E-02    58.14    6.85549E-01  -121.86
 -120.00     5.00     -25.07    2.11    2.12    0.00000   -87.50  LINEAR    2.99845E-02    58.14    6.85450E-01  -121.86
 -115.00     5.00     -26.53    2.11    2.12    0.00000   -87.88  LINEAR    2.53407E-02    58.14    6.85360E-01  -121.86
 -110.00     5.00     -28.37    2.11    2.12    0.00000   -88.29  LINEAR    2.05056E-02    58.14    6.85283E-01  -121.86
 -105.00     5.00     -30.79    2.11    2.11    0.00000   -88.70  LINEAR    1.55159E-02    58.14    6.85220E-01  -121.86
 -100.00     5.00     -34.26    2.11    2.11    0.00000   -89.13  LINEAR    1.04093E-02    58.14    6.85174E-01  -121.86
  -95.00     5.00     -40.25    2.11    2.11    0.00000   -89.56  LINEAR    5.22433E-03    58.14    6.85146E-01  -121.86
  -90.00     5.00    -999.99    2.11    2.11    0.00000   -90.00  LINEAR    3.05907E-13    58.14    6.85136E-01  -121.86
  -85.00     5.00     -40.25    2.11    2.11    0.00000    89.56  LINEAR    5.22433E-03  -121.86    6.85146E-01  -121.86
  -80.00     5.00     -34.26    2.11    2.11    0.00000    89.13  LINEAR    1.04093E-02  -121.86    6.85174E-01  -121.86
  -75.00     5.00     -30.79    2.11    2.11    0.00000    88.70  LINEAR    1.55159E-02  -121.86    6.85220E-01  -121.86
  -70.00     5.00     -28.37    2.11    2.12    0.00000    88.29  LINEAR    2.05056E-02  -121.86    6.85283E-01  -121.86
  -65.00     5.00     -26.53    2.11    2.12    0.00000    87.88  LINEAR    2.53407E-02  -121.86    6.85360E-01  -121.86
  -60.00     5.00     -25.07    2.11    2.12    0.00000    87.50  LINEAR    2.99845E-02  -121.86    6.85450E-01  -121.86
  -55.00     5.00     -23.87    2.11    2.13    0.00000    87.13  LINEAR    3.44018E-02  -121.86    6.85549E-01  -121.86
  -50.00     5.00     -22.88    2.12    2.13    0.00000    86.78  LINEAR    3.85589E-02  -121.86    6.85654E-01  -121.86
  -45.00     5.00     -22.05    2.12    2.13    0.00000    86.46  LINEAR    4.24239E-02  -121.86    6.85763E-01  -121.86
  -40.00     5.00     -21.36    2.12    2.14    0.00000    86.17  LINEAR    4.59673E-02  -121.86    6.85872E-01  -121.86
  -35.00     5.00     -20.77    2.12    2.14    0.00000    85.90  LINEAR    4.91616E-02  -121.86    6.85977E-01  -121.86
  -30.00     5.00     -20.29    2.12    2.15    0.00000    85.67  LINEAR    5.19822E-02  -121.86    6.86076E-01  -121.86
  -25.00     5.00     -19.89    2.12    2.15    0.00000    85.47  LINEAR    5.44072E-02  -121.86    6.86166E-01  -121.86
  -20.00     5.00     -19.58    2.12    2.15    0.00000    85.30  LINEAR    5.64177E-02  -121.86    6.86243E-01  -121.86
  -15.00     5.00     -19.34    2.12    2.16    0.00000    85.17  LINEAR    5.79980E-02  -121.86    6.86306E-01  -121.86
  -10.00     5.00     -19.17    2.12    2.16    0.00000    85.08  LINEAR    5.91357E-02  -121.86    6.86352E-01  -121.86
   -5.00     5.00     -19.07    2.13    2.16    0.00000    85.02  LINEAR    5.98220E-02  -121.86    6.86380E-01  -121.86
    0.00     5.00     -19.04    2.13    2.16    0.00000    85.00  LINEAR    6.00513E-02  -121.86    6.86390E-01  -121.86
 -180.00    10.00     -13.05    2.03    2.16    0.00000   -80.00  LINEAR    1.19646E-01    58.14    6.78544E-01  -121.86
 -175.00    10.00     -13.08    2.03    2.16    0.00000   -80.04  LINEAR    1.19184E-01    58.14    6.78507E-01  -121.86
 -170.00    10.00     -13.18    2.02    2.15    0.00000   -80.15  LINEAR    1.17802E-01    58.14    6.78396E-01  -121.86
 -165.00    10.00     -13.35    2.02    2.15    0.00000   -80.33  LINEAR    1.15513E-01    58.14    6.78214E-01  -121.86
 -160.00    10.00     -13.60    2.02    2.14    0.00000   -80.59  LINEAR    1.12335E-01    58.14    6.77968E-01  -121.86
 -155.00    10.00     -13.91    2.01    2.12    0.00000   -80.92  LINEAR    1.08295E-01    58.14    6.77665E-01  -121.86
 -150.00    10.00     -14.31    2.01    2.11    0.00000   -81.32  LINEAR    1.03428E-01    58.14    6.77314E-01  -121.86
 -145.00    10.00     -14.80    2.00    2.09    0.00000   -81.78  LINEAR    9.77743E-02    58.14    6.76926E-01  -121.86
 -140.00    10.00     -15.39    2.00    2.08    0.00000   -82.31  LINEAR    9.13795E-02    58.14    6.76513E-01  -121.86
 -135.00    10.00     -16.09    1.99    2.06    0.00000   -82.89  LINEAR    8.42958E-02    58.14    6.76086E-01  -121.86
 -130.00    10.00     -16.92    1.99    2.04    0.00000   -83.53  LINEAR    7.65799E-02    58.14    6.75660E-01  -121.86
 -125.00    10.00     -17.92    1.98    2.03    0.00000   -84.22  LINEAR    6.82925E-02    58.14    6.75247E-01  -121.86
 -120.00    10.00     -19.12    1.98    2.01    0.00000   -84.96  LINEAR    5.94980E-02    58.14    6.74860E-01  -121.86
 -115.00    10.00     -20.58    1.97    2.00    0.00000   -85.74  LINEAR    5.02638E-02    58.14    6.74510E-01  -121.86
 -110.00    10.00     -22.42    1.97    1.99    0.00000   -86.55  LINEAR    4.06597E-02    58.14    6.74208E-01  -121.86
 -105.00    10.00     -24.85    1.97    1.98    0.00000   -87.39  LINEAR    3.07575E-02    58.14    6.73964E-01  -121.86
 -100.00    10.00     -28.32    1.96    1.97    0.00000   -88.25  LINEAR    2.06305E-02    58.14    6.73783E-01  -121.86
  -95.00    10.00     -34.30    1.96    1.96    0.00000   -89.12  LINEAR    1.03529E-02    58.14    6.73673E-01  -121.86
  -90.00    10.00    -999.99    1.96    1.96    0.00000   -90.00  LINEAR    6.06184E-13    58.14    6.73636E-01  -121.86
  -85.00    10.00     -34.30    1.96    1.96    0.00000    89.12  LINEAR    1.03529E-02  -121.86    6.73673E-01  -121.86
  -80.00    10.00     -28.32    1.96    1.97    0.00000    88.25  LINEAR    2.06305E-02  -121.86    6.73783E-01  -121.86
  -75.00    10.00     -24.85    1.97    1.98    0.00000    87.39  LINEAR    3.07575E-02  -121.86    6.73964E-01  -121.86
  -70.00    10.00     -22.42    1.97    1.99    0.00000    86.55  LINEAR    4.06597E-02  -121.86    6.74208E-01  -121.86
  -65.00    10.00     -20.58    1.97    2.00    0.00000    85.74  LINEAR    5.02638E-02  -121.86    6.74510E-01  -121.86
  -60.00    10.00     -19.12    1.98    2.01    0.00000    84.96  LINEAR    5.94980E-02  -121.86    6.74860E-01  -121.86
  -55.00    10.00     -17.92    1.98    2.03    0.00000    84.22  LINEAR    6.82925E-02  -121.86    6.75247E-01  -121.86
  -50.00    10.00     -16.92    1.99    2.04    0.00000    83.53  LINEAR    7.65799E-02  -121.86    6.75660E-01  -121.86
  -45.00    10.00     -16.09    1.99    2.06    0.00000    82.89  LINEAR    8.42958E-02  -121.86    6.76086E-01  -121.86
  -40.00    10.00     -15.39    2.00    2.08    0.00000    82.31  LINEAR    9.13795E-02  -121.86    6.76513E-01  -121.86
  -35.00    10.00     -14.80    2.00    2.09    0.00000    81.78  LINEAR    9.77743E-02  -121.86    6.76926E-01  -121.86
  -30.00    10.00     -14.31    2.01    2.11    0.00000    81.32  LINEAR    1.03428E-01  -121.86    6.77314E-01  -121.86
  -25.00    10.00     -13.91    2.01    2.12    0.00000    80.92  LINEAR    1.08295E-01  -121.86    6.77665E-01  -121.86
  -20.00    10.00     -13.60    2.02    2.14    0.00000    80.59  LINEAR    1.12335E-01  -121.86    6.77968E-01  -121.86
  -15.00    10.00     -13.35    2.02    2.15    0.00000    80.33  LINEAR    1.15513E-01  -121.86    6.78214E-01  -121.86
  -10.00    10.00     -13.18    2.02    2.15    0.00000    80.15  LINEAR    1.17802E-01  -121.86    6.78396E-01  -121.86
   -5.00    10.00     -13.08    2.03    2.16    0.00000    80.04  LINEAR    1.19184E-01  -121.86    6.78507E-01  -121.86
    0.00    10.00     -13.05    2.03    2.16    0.00000    80.00  LINEAR    1.19646E-01  -121.86    6.78544E-01  -121.86
 -180.00    15.00      -9.58    1.86    2.16    0.00000   -75.00  LINEAR    1.78329E-01    58.14    6.65534E-01  -121.86
 -175.00    15.00      -9.62    1.86    2.16    0.00000   -75.05  LINEAR    1.77629E-01    58.14    6.65453E-01  -121.86
 -170.00    15.00      -9.72    1.85    2.15    0.00000   -75.22  LINEAR    1.75535E-01    58.14    6.65211E-01  -121.86
 -165.00    15.00      -9.89    1.85    2.13    0.00000   -75.49  LINEAR    1.72067E-01    58.14    6.64816E-01  -121.86
 -160.00    15.00     -10.14    1.84    2.11    0.00000   -75.87  LINEAR    1.67259E-01    58.14    6.64281E-01  -121.86
 -155.00    15.00     -10.46    1.83    2.08    0.00000   -76.35  LINEAR    1.61157E-01    58.14    6.63621E-01  -121.86
 -150.00    15.00     -10.87    1.82    2.05    0.00000   -76.94  LINEAR    1.53817E-01    58.14    6.62857E-01  -121.86
 -145.00    15.00     -11.36    1.81    2.02    0.00000   -77.62  LINEAR    1.45306E-01    58.14    6.62013E-01  -121.86
 -140.00    15.00     -11.95    1.80    1.98    0.00000   -78.40  LINEAR    1.35701E-01    58.14    6.61114E-01  -121.86
 -135.00    15.00     -12.66    1.79    1.94    0.00000   -79.27  LINEAR    1.25085E-01    58.14    6.60188E-01  -121.86
 -130.00    15.00     -13.50    1.78    1.90    0.00000   -80.23  LINEAR    1.13548E-01    58.14    6.59263E-01  -121.86
 -125.00    15.00     -14.50    1.76    1.86    0.00000   -81.26  LINEAR    1.01184E-01    58.14    6.58367E-01  -121.86
 -120.00    15.00     -15.71    1.75    1.83    0.00000   -82.37  LINEAR    8.80919E-02    58.15    6.57527E-01  -121.85
 -115.00    15.00     -17.18    1.74    1.80    0.00000   -83.54  LINEAR    7.43726E-02    58.15    6.56768E-01  -121.85
 -110.00    15.00     -19.02    1.73    1.77    0.00000   -84.76  LINEAR    6.01289E-02    58.15    6.56114E-01  -121.85
 -105.00    15.00     -21.45    1.73    1.75    0.00000   -86.03  LINEAR    4.54649E-02    58.15    6.55583E-01  -121.85
 -100.00    15.00     -24.92    1.72    1.73    0.00000   -87.34  LINEAR    3.04854E-02    58.15    6.55193E-01  -121.85
  -95.00    15.00     -30.91    1.72    1.72    0.00000   -88.66  LINEAR    1.52953E-02    58.15    6.54954E-01  -121.85
  -90.00    15.00    -999.99    1.72    1.72    0.00000   -90.00  LINEAR    8.95510E-13    58.15    6.54873E-01  -121.85
  -85.00    15.00     -30.91    1.72    1.72    0.00000    88.66  LINEAR    1.52953E-02  -121.85    6.54954E-01  -121.85
  -80.00    15.00     -24.92    1.72    1.73    0.00000    87.34  LINEAR    3.04854E-02  -121.85    6.55193E-01  -121.85
  -75.00    15.00     -21.45    1.73    1.75    0.00000    86.03  LINEAR    4.54649E-02  -121.85    6.55583E-01  -121.85
  -70.00    15.00     -19.02    1.73    1.77    0.00000    84.76  LINEAR    6.01289E-02  -121.85    6.56114E-01  -121.85
  -65.00    15.00     -17.18    1.74    1.80    0.00000    83.54  LINEAR    7.43726E-02  -121.85    6.56768E-01  -121.85
  -60.00    15.00     -15.71    1.75    1.83    0.00000    82.37  LINEAR    8.80919E-02  -121.85    6.57527E-01  -121.85
  -55.00    15.00     -14.50    1.76    1.86    0.00000    81.26  LINEAR    1.01184E-01  -121.86    6.58367E-01  -121.86
  -50.00    15.00     -13.50    1.78    1.90    0.00000    80.23  LINEAR    1.13548E-01  -121.86    6.59263E-01  -121.86
  -45.00    15.00     -12.66    1.79    1.94    0.00000    79.27  LINEAR    1.25085E-01  -121.86    6.60188E-01  -121.86
  -40.00    15.00     -11.95    1.80    1.98    0.00000    78.40  LINEAR    1.35701E-01  -121.86    6.61114E-01  -121.86
  -35.00    15.00     -11.36    1.81    2.02    0.00000    77.62  LINEAR    1.45306E-01  -121.86    6.62013E-01  -121.86
  -30.00    15.00     -10.87    1.82    2.05    0.00000    76.94  LINEAR    1.53817E-01  -121.86    6.62857E-01  -121.86
  -25.00    15.00     -10.46    1.83    2.08    0.00000    76.35  LINEAR    1.61157E-01  -121.86    6.63621E-01  -121.86
  -20.00    15.00     -10.14    1.84    2.11    0.00000    75.87  LINEAR    1.67259E-01  -121.86    6.64281E-01  -121.86
  -15.00    15.00      -9.89    1.85    2.13    0.00000    75.49  LINEAR    1.72067E-01  -121.86    6.64816E-01  -121.86
  -10.00    15.00      -9.72    1.85    2.15    0.00000    75.22  LINEAR    1.75535E-01  -121.86    6.65211E-01  -121.86
   -5.00    15.00      -9.62    1.86    2.16    0.00000    75.05  LINEAR    1.77629E-01  -121.86    6.65453E-01  -121.86
    0.00    15.00      -9.58    1.86    2.16    0.00000    75.00  LINEAR    1.78329E-01  -121.86    6.65534E-01  -121.86
 -180.00    20.00      -7.16    1.62    2.16    0.00000   -70.00  LINEAR    2.35656E-01    58.14    6.47459E-01  -121.86
 -175.00    20.00      -7.20    1.62    2.15    0.00000   -70.07  LINEAR    2.34709E-01    58.14    6.47321E-01  -121.86
 -170.00    20.00      -7.30    1.61    2.14    0.00000   -70.28  LINEAR    2.31879E-01    58.14    6.46910E-01  -121.86
 -165.00    20.00      -7.48    1.60    2.11    0.00000   -70.63  LINEAR    2.27197E-01    58.14    6.46240E-01  -121.86
 -160.00    20.00      -7.73    1.59    2.07    0.00000   -71.12  LINEAR    2.20716E-01    58.14    6.45331E-01  -121.86
 -155.00    20.00      -8.06    1.57    2.02    0.00000   -71.74  LINEAR    2.12505E-01    58.14    6.44211E-01  -121.86
 -150.00    20.00      -8.47    1.56    1.97    0.00000   -72.50  LINEAR    2.02652E-01    58.14    6.42916E-01  -121.86
 -145.00    20.00      -8.97    1.54    1.91    0.00000   -73.40  LINEAR    1.91257E-01    58.14    6.41486E-01  -121.86
 -140.00    20.00      -9.58    1.52    1.84    0.00000   -74.42  LINEAR    1.78433E-01    58.15    6.39964E-01  -121.85
 -135.00    20.00     -10.29    1.50    1.77    0.00000   -75.57  LINEAR    1.64302E-01    58.15    6.38397E-01  -121.85
 -130.00    20.00     -11.14    1.47    1.71    0.00000   -76.83  LINEAR    1.48991E-01    58.15    6.36833E-01  -121.85
 -125.00    20.00     -12.15    1.45    1.64    0.00000   -78.21  LINEAR    1.32632E-01    58.15    6.35319E-01  -121.85
 -120.00    20.00     -13.36    1.43    1.58    0.00000   -79.69  LINEAR    1.15360E-01    58.15    6.33900E-01  -121.85
 -115.00    20.00     -14.84    1.42    1.52    0.00000   -81.26  LINEAR    9.73100E-02    58.15    6.32620E-01  -121.85
 -110.00    20.00     -16.70    1.40    1.47    0.00000   -82.90  LINEAR    7.86145E-02    58.16    6.31517E-01  -121.84
 -105.00    20.00     -19.13    1.39    1.43    0.00000   -84.62  LINEAR    5.94062E-02    58.16    6.30623E-01  -121.84
 -100.00    20.00     -22.60    1.38    1.40    0.00000   -86.38  LINEAR    3.98155E-02    58.16    6.29965E-01  -121.84
  -95.00    20.00     -28.60    1.37    1.38    0.00000   -88.18  LINEAR    1.99710E-02    58.16    6.29562E-01  -121.84
  -90.00    20.00    -999.99    1.37    1.37    0.00000   -90.00  LINEAR    1.16915E-12    58.16    6.29427E-01  -121.84
  -85.00    20.00     -28.60    1.37    1.38    0.00000    88.18  LINEAR    1.99710E-02  -121.84    6.29562E-01  -121.84
  -80.00    20.00     -22.60    1.38    1.40    0.00000    86.38  LINEAR    3.98155E-02  -121.84    6.29965E-01  -121.84
  -75.00    20.00     -19.13    1.39    1.43    0.00000    84.62  LINEAR    5.94062E-02  -121.84    6.30623E-01  -121.84
  -70.00    20.00     -16.70    1.40    1.47    0.00000    82.90  LINEAR    7.86145E-02  -121.84    6.31517E-01  -121.84
  -65.00    20.00     -14.84    1.42    1.52    0.00000    81.26  LINEAR    9.73100E-02  -121.85    6.32620E-01  -121.85
  -60.00    20.00     -13.36    1.43    1.58    0.00000    79.69  LINEAR    1.15360E-01  -121.85    6.33900E-01  -121.85
  -55.00    20.00     -12.15    1.45    1.64    0.00000    78.21  LINEAR    1.32632E-01  -121.85    6.35319E-01  -121.85
  -50.00    20.00     -11.14    1.47    1.71    0.00000    76.83  LINEAR    1.48991E-01  -121.85    6.36833E-01  -121.85
  -45.00    20.00     -10.29    1.50    1.77    0.00000    75.57  LINEAR    1.64302E-01  -121.85    6.38397E-01  -121.85
  -40.00    20.00      -9.58    1.52    1.84    0.00000    74.42  LINEAR    1.78433E-01  -121.85    6.39964E-01  -121.85
  -35.00    20.00      -8.97    1.54    1.91    0.00000    73.40  LINEAR    1.91257E-01  -121.86    6.41486E-01  -121.86
  -30.00    20.00      -8.47    1.56    1.97    0.00000    72.50  LINEAR    2.02652E-01  -121.86    6.42916E-01  -121.86
  -25.00    20.00      -8.06    1.57    2.02    0.00000    71.74  LINEAR    2.12505E-01  -121.86    6.44211E-01  -121.86
  -20.00    20.00      -7.73    1.59    2.07    0.00000    71.12  LINEAR    2.20716E-01  -121.86    6.45331E-01  -121.86
  -15.00    20.00      -7.48    1.60    2.11    0.00000    70.63  LINEAR    2.27197E-01  -121.86    6.46240E-01  -121.86
  -10.00    20.00      -7.30    1.61    2.14    0.00000    70.28  LINEAR    2.31879E-01  -121.86    6.46910E-01  -121.86
   -5.00    20.00      -7.20    1.62    2.15    0.00000    70.07  LINEAR    2.34709E-01  -121.86    6.47321E-01  -121.86
    0.00    20.00      -7.16    1.62    2.16    0.00000    70.00  LINEAR    2.35656E-01  -121.86    6.47459E-01  -121.86
 -180.00    25.00      -5.32    1.30    2.16    0.00000   -65.00  LINEAR    2.91189E-01    58.14    6.24457E-01  -121.86
 -175.00    25.00      -5.36    1.30    2.15    0.00000   -65.08  LINEAR    2.89986E-01    58.14    6.24253E-01  -121.86
 -170.00    25.00      -5.47    1.29    2.12    0.00000   -65.33  LINEAR    2.86394E-01    58.14    6.23648E-01  -121.86
 -165.00    25.00      -5.65    1.28    2.08    0.00000   -65.75  LINEAR    2.80458E-01    58.14    6.22661E-01  -121.86
 -160.00    25.00      -5.91    1.26    2.02    0.00000   -66.34  LINEAR    2.72255E-01    58.14    6.21324E-01  -121.86
 -155.00    25.00      -6.24    1.24    1.95    0.00000   -67.09  LINEAR    2.61887E-01    58.14    6.19678E-01  -121.86
 -150.00    25.00      -6.67    1.21    1.87    0.00000   -68.01  LINEAR    2.49479E-01    58.14    6.17776E-01  -121.86
 -145.00    25.00      -7.18    1.18    1.77    0.00000   -69.09  LINEAR    2.35174E-01    58.15    6.15676E-01  -121.85
 -140.00    25.00      -7.79    1.15    1.67    0.00000   -70.34  LINEAR    2.19130E-01    58.15    6.13444E-01  -121.85
 -135.00    25.00      -8.52    1.12    1.57    0.00000   -71.75  LINEAR    2.01513E-01    58.15    6.11147E-01  -121.85
 -130.00    25.00      -9.38    1.08    1.46    0.00000   -73.31  LINEAR    1.82497E-01    58.16    6.08857E-01  -121.84
 -125.00    25.00     -10.40    1.05    1.35    0.00000   -75.03  LINEAR    1.62255E-01    58.16    6.06643E-01  -121.84
 -120.00    25.00     -11.62    1.02    1.25    0.00000   -76.88  LINEAR    1.40958E-01    58.16    6.04570E-01  -121.84
 -115.00    25.00     -13.11    1.00    1.16    0.00000   -78.85  LINEAR    1.18774E-01    58.17    6.02701E-01  -121.83
 -110.00    25.00     -14.97    0.97    1.08    0.00000   -80.94  LINEAR    9.58660E-02    58.17    6.01091E-01  -121.83
 -105.00    25.00     -17.41    0.95    1.02    0.00000   -83.12  LINEAR    7.23880E-02    58.17    5.99788E-01  -121.83
 -100.00    25.00     -20.89    0.94    0.97    0.00000   -85.37  LINEAR    4.84892E-02    58.17    5.98828E-01  -121.83
  -95.00    25.00     -26.89    0.93    0.94    0.00000   -87.67  LINEAR    2.43134E-02    58.17    5.98242E-01  -121.83
  -90.00    25.00    -999.99    0.93    0.93    0.00000   -90.00  LINEAR    1.42320E-12    58.17    5.98044E-01  -121.83
  -85.00    25.00     -26.89    0.93    0.94    0.00000    87.67  LINEAR    2.43134E-02  -121.83    5.98242E-01  -121.83
  -80.00    25.00     -20.89    0.94    0.97    0.00000    85.37  LINEAR    4.84892E-02  -121.83    5.98828E-01  -121.83
  -75.00    25.00     -17.41    0.95    1.02    0.00000    83.12  LINEAR    7.23880E-02  -121.83    5.99788E-01  -121.83
  -70.00    25.00     -14.97    0.97    1.08    0.00000    80.94  LINEAR    9.58660E-02  -121.83    6.01091E-01  -121.83
  -65.00    25.00     -13.11    1.00    1.16    0.00000    78.85  LINEAR    1.18774E-01  -121.83    6.02701E-01  -121.83
  -60.00    25.00     -11.62    1.02    1.25    0.00000    76.88  LINEAR    1.40958E-01  -121.84    6.04570E-01  -121.84
  -55.00    25.00     -10.40    1.05    1.35    0.00000    75.03  LINEAR    1.62255E-01  -121.84    6.06643E-01  -121.84
  -50.00    25.00      -9.38    1.08    1.46    0.00000    73.31  LINEAR    1.82497E-01  -121.84    6.08857E-01  -121.84
  -45.00    25.00      -8.52    1.12    1.57    0.00000    71.75  LINEAR    2.01513E-01  -121.85    6.11147E-01  -121.85
  -40.00    25.00      -7.79    1.15    1.67    0.00000    70.34  LINEAR    2.19130E-01  -121.85    6.13444E-01  -121.85
  -35.00    25.00      -7.18    1.18    1.77    0.00000    69.09  LINEAR    2.35174E-01  -121.85    6.15676E-01  -121.85
  -30.00    25.00      -6.67    1.21    1.87    0.00000    68.01  LINEAR    2.49479E-01  -121.86    6.17776E-01  -121.86
  -25.00    25.00      -6.24    1.24    1.95    0.00000    67.09  LINEAR    2.61887E-01  -121.86    6.19678E-01  -121.86
  -20.00    25.00      -5.91    1.26    2.02    0.00000    66.34  LINEAR    2.72255E-01  -121.86    6.21324E-01  -121.86
  -15.00    25.00      -5.65    1.28    2.08    0.00000    65.75  LINEAR    2.80458E-01  -121.86    6.22661E-01  -121.86
  -10.00    25.00      -5.47    1.29    2.12    0.00000    65.33  LINEAR    2.86394E-01  -121.86    6.23648E-01  -121.86
   -5.00    25.00      -5.36    1.30    2.15    0.00000    65.08  LINEAR    2.89986E-01  -121.86    6.24253E-01  -121.86
    0.00    25.00      -5.32    1.30    2.16    0.00000    65.00  LINEAR    2.91189E-01  -121.86    6.24457E-01  -121.86
 -180.00    30.00      -3.86    0.91    2.16    0.00000   -60.00  LINEAR    3.44506E-01    58.14    5.96701E-01  -121.86
 -175.00    30.00      -3.90    0.91    2.15    0.00000   -60.09  LINEAR    3.43038E-01    58.14    5.96429E-01  -121.86
 -170.00    30.00      -4.01    0.89    2.11    0.00000   -60.38  LINEAR    3.38657E-01    58.14    5.95620E-01  -121.86
 -165.00    30.00      -4.20    0.87    2.05    0.00000   -60.85  LINEAR    3.31429E-01    58.14    5.94301E-01  -121.86
 -160.00    30.00      -4.46    0.85    1.97    0.00000   -61.52  LINEAR    3.21458E-01    58.14    5.92515E-01  -121.86
 -155.00    30.00      -4.81    0.82    1.87    0.00000   -62.38  LINEAR    3.08888E-01    58.14    5.90318E-01  -121.86
 -150.00    30.00      -5.24    0.78    1.75    0.00000   -63.43  LINEAR    2.93890E-01    58.15    5.87780E-01  -121.85
 -145.00    30.00      -5.77    0.74    1.61    0.00000   -64.69  LINEAR    2.76660E-01    58.15    5.84981E-01  -121.85
 -140.00    30.00      -6.39    0.69    1.47    0.00000   -66.14  LINEAR    2.57409E-01    58.16    5.82009E-01  -121.84
 -135.00    30.00      -7.13    0.65    1.32    0.00000   -67.79  LINEAR    2.36358E-01    58.16    5.78955E-01  -121.84
 -130.00    30.00      -8.01    0.60    1.16    0.00000   -69.64  LINEAR    2.13729E-01    58.17    5.75913E-01  -121.83
 -125.00    30.00      -9.04    0.56    1.01    0.00000   -71.68  LINEAR    1.89743E-01    58.17    5.72974E-01  -121.83
 -120.00    30.00     -10.28    0.51    0.86    0.00000   -73.90  LINEAR    1.64610E-01    58.17    5.70227E-01  -121.83
 -115.00    30.00     -11.78    0.48    0.73    0.00000   -76.29  LINEAR    1.38531E-01    58.18    5.67751E-01  -121.82
 -110.00    30.00     -13.65    0.44    0.61    0.00000   -78.83  LINEAR    1.11691E-01    58.18    5.65621E-01  -121.82
 -105.00    30.00     -16.09    0.42    0.51    0.00000   -81.50  LINEAR    8.42627E-02    58.18    5.63897E-01  -121.82
 -100.00    30.00     -19.58    0.40    0.44    0.00000   -84.27  LINEAR    5.64069E-02    58.18    5.62629E-01  -121.82
  -95.00    30.00     -25.58    0.39    0.40    0.00000   -87.12  LINEAR    2.82722E-02    58.19    5.61854E-01  -121.81
  -90.00    30.00    -999.99    0.38    0.38    0.00000   -90.00  LINEAR    1.65471E-12    58.19    5.61593E-01  -121.81
  -85.00    30.00     -25.58    0.39    0.40    0.00000    87.12  LINEAR    2.82722E-02  -121.81    5.61854E-01  -121.81
  -80.00    30.00     -19.58    0.40    0.44    0.00000    84.27  LINEAR    5.64069E-02  -121.82    5.62629E-01  -121.82
  -75.00    30.00     -16.09    0.42    0.51    0.00000    81.50  LINEAR    8.42627E-02  -121.82    5.63897E-01  -121.82
  -70.00    30.00     -13.65    0.44    0.61    0.00000    78.83  LINEAR    1.11691E-01  -121.82    5.65621E-01  -121.82
  -65.00    30.00     -11.78    0.48    0.73    0.00000    76.29  LINEAR    1.38531E-01  -121.82    5.67751E-01  -121.82
  -60.00    30.00     -10.28    0.51    0.86    0.00000    73.90  LINEAR    1.64610E-01  -121.83    5.70227E-01  -121.83
  -55.00    30.00      -9.04    0.56    1.01    0.00000    71.68  LINEAR    1.89743E-01  -121.83    5.72974E-01  -121.83
  -50.00    30.00      -8.01    0.60    1.16    0.00000    69.64  LINEAR    2.13729E-01  -121.83    5.75913E-01  -121.83
  -45.00    30.00      -7.13    0.65    1.32    0.00000    67.79  LINEAR    2.36358E-01  -121.84    5.78955E-01  -121.84
  -40.00    30.00      -6.39    0.69    1.47    0.00000    66.14  LINEAR    2.57409E-01  -121.84    5.82009E-01  -121.84
  -35.00    30.00      -5.77    0.74    1.61    0.00000    64.69  LINEAR    2.76660E-01  -121.85    5.84981E-01  -121.85
  -30.00    30.00      -5.24    0.78    1.75    0.00000    63.43  LINEAR    2.93890E-01  -121.85    5.87780E-01  -121.85
  -25.00    30.00      -4.81    0.82    1.87    0.00000    62.38  LINEAR    3.08888E-01  -121.86    5.90318E-01  -121.86
  -20.00    30.00      -4.46    0.85    1.97    0.00000    61.52  LINEAR    3.21458E-01  -121.86    5.92515E-01  -121.86
  -15.00    30.00      -4.20    0.87    2.05    0.00000    60.85  LINEAR    3.31429E-01  -121.86    5.94301E-01  -121.86
  -10.00    30.00      -4.01    0.89    2.11    0.00000    60.38  LINEAR    3.38657E-01  -121.86    5.95620E-01  -121.86
   -5.00    30.00      -3.90    0.91    2.15    0.00000    60.09  LINEAR    3.43038E-01  -121.86    5.96429E-01  -121.86
    0.00    30.00      -3.86    0.91    2.16    0.00000    60.00  LINEAR    3.44506E-01  -121.86    5.96701E-01  -121.86
 -180.00    35.00      -2.67    0.43    2.16    0.00000   -55.00  LINEAR    3.95201E-01    58.14    5.64405E-01  -121.86
 -175.00    35.00      -2.71    0.42    2.14    0.00000   -55.10  LINEAR    3.93460E-01    58.14    5.64066E-01  -121.86
 -170.00    35.00      -2.82    0.41    2.09    0.00000   -55.41  LINEAR    3.88269E-01    58.14    5.63060E-01  -121.86
 -165.00    35.00      -3.02    0.38    2.02    0.00000   -55.93  LINEAR    3.79715E-01    58.14    5.61419E-01  -121.86
 -160.00    35.00      -3.29    0.35    1.91    0.00000   -56.66  LINEAR    3.67941E-01    58.14    5.59198E-01  -121.86
 -155.00    35.00      -3.65    0.30    1.77    0.00000   -57.60  LINEAR    3.53137E-01    58.15    5.56469E-01  -121.85
 -150.00    35.00      -4.09    0.25    1.61    0.00000   -58.77  LINEAR    3.35532E-01    58.15    5.53319E-01  -121.85
 -145.00    35.00      -4.63    0.20    1.43    0.00000   -60.16  LINEAR    3.15381E-01    58.16    5.49850E-01  -121.84
 -140.00    35.00      -5.27    0.14    1.24    0.00000   -61.79  LINEAR    2.92960E-01    58.16    5.46169E-01  -121.84
 -135.00    35.00      -6.03    0.08    1.03    0.00000   -63.66  LINEAR    2.68550E-01    58.17    5.42392E-01  -121.83
 -130.00    35.00      -6.91    0.02    0.82    0.00000   -65.77  LINEAR    2.42431E-01    58.17    5.38633E-01  -121.83
 -125.00    35.00      -7.96   -0.04    0.61    0.00000   -68.12  LINEAR    2.14871E-01    58.18    5.35007E-01  -121.82
 -120.00    35.00      -9.21   -0.09    0.41    0.00000   -70.70  LINEAR    1.86122E-01    58.19    5.31620E-01  -121.81
 -115.00    35.00     -10.72   -0.14    0.22    0.00000   -73.52  LINEAR    1.56416E-01    58.19    5.28573E-01  -121.81
 -110.00    35.00     -12.60   -0.19    0.06    0.00000   -76.53  LINEAR    1.25958E-01    58.19    5.25952E-01  -121.81
 -105.00    35.00     -15.06   -0.22   -0.08    0.00000   -79.73  LINEAR    9.49328E-02    58.20    5.23833E-01  -121.80
 -100.00    35.00     -18.55   -0.25   -0.18    0.00000   -83.07  LINEAR    6.35034E-02    58.20    5.22276E-01  -121.80
  -95.00    35.00     -24.55   -0.26   -0.25    0.00000   -86.51  LINEAR    3.18149E-02    58.20    5.21324E-01  -121.80
  -90.00    35.00    -999.99   -0.27   -0.27    0.00000   -90.00  LINEAR    1.86178E-12    58.20    5.21004E-01  -121.80
  -85.00    35.00     -24.55   -0.26   -0.25    0.00000    86.51  LINEAR    3.18149E-02  -121.80    5.21324E-01  -121.80
  -80.00    35.00     -18.55   -0.25   -0.18    0.00000    83.07  LINEAR    6.35034E-02  -121.80    5.22276E-01  -121.80
  -75.00    35.00     -15.06   -0.22   -0.08    0.00000    79.73  LINEAR    9.49328E-02  -121.80    5.23833E-01  -121.80
  -70.00    35.00     -12.60   -0.19    0.06    0.00000    76.53  LINEAR    1.25958E-01  -121.81    5.25952E-01  -121.81
  -65.00    35.00     -10.72   -0.14    0.22    0.00000    73.52  LINEAR    1.56416E-01  -121.81    5.28573E-01  -121.81
  -60.00    35.00      -9.21   -0.09    0.41    0.00000    70.70  LINEAR    1.86122E-01  -121.81    5.31620E-01  -121.81
  -55.00    35.00      -7.96   -0.04    0.61    0.00000    68.12  LINEAR    2.14871E-01  -121.82    5.35007E-01  -121.82
  -50.00    35.00      -6.91    0.02    0.82    0.00000    65.77  LINEAR    2.42431E-01  -121.83    5.38633E-01  -121.83
  -45.00    35.00      -6.03    0.08    1.03    0.00000    63.66  LINEAR    2.68550E-01  -121.83    5.42392E-01  -121.83
  -40.00    35.00      -5.27    0.14    1.24    0.00000    61.79  LINEAR    2.92960E-01  -121.84    5.46169E-01  -121.84
  -35.00    35.00      -4.63    0.20    1.43    0.00000    60.16  LINEAR    3.15381E-01  -121.84    5.49850E-01  -121.84
  -30.00    35.00      -4.09    0.25    1.61    0.00000    58.77  LINEAR    3.35532E-01  -121.85    5.53319E-01  -121.85
  -25.00    35.00      -3.65    0.30    1.77    0.00000    57.60  LINEAR    3.53137E-01  -121.85    5.56469E-01  -121.85
  -20.00    35.00      -3.29    0.35    1.91    0.00000    56.66  LINEAR    3.67941E-01  -121.86    5.59198E-01  -121.86
  -15.00    35.00      -3.02    0.38    2.02    0.00000    55.93  LINEAR    3.79715E-01  -121.86    5.61419E-01  -121.86
  -10.00    35.00      -2.82    0.41    2.09    0.00000    55.41  LINEAR    3.88269E-01  -121.86    5.63060E-01  -121.86
   -5.00    35.00      -2.71    0.42    2.14    0.00000    55.10  LINEAR    3.93460E-01  -121.86    5.64066E-01  -121.86
    0.00    35.00      -2.67    0.43    2.16    0.00000    55.00  LINEAR    3.95201E-01  -121.86    5.64405E-01  -121.86
 -180.00    40.00      -1.68   -0.16    2.16    0.00000   -50.00  LINEAR    4.42888E-01    58.14    5.27813E-01  -121.86
 -175.00    40.00      -1.72   -0.16    2.14    0.00000   -50.11  LINEAR    4.40870E-01    58.14    5.27415E-01  -121.86
 -170.00    40.00      -1.84   -0.18    2.08    0.00000   -50.43  LINEAR    4.34854E-01    58.14    5.26233E-01  -121.86
 -165.00    40.00      -2.04   -0.21    1.98    0.00000   -50.97  LINEAR    4.24956E-01    58.14    5.24308E-01  -121.86
 -160.00    40.00      -2.32   -0.26    1.84    0.00000   -51.74  LINEAR    4.11361E-01    58.15    5.21703E-01  -121.85
 -155.00    40.00      -2.69   -0.31    1.67    0.00000   -52.75  LINEAR    3.94314E-01    58.15    5.18505E-01  -121.85
 -150.00    40.00      -3.15   -0.37    1.47    0.00000   -53.99  LINEAR    3.74108E-01    58.16    5.14817E-01  -121.84
 -145.00    40.00      -3.70   -0.44    1.24    0.00000   -55.50  LINEAR    3.51071E-01    58.16    5.10760E-01  -121.84
 -140.00    40.00      -4.35   -0.52    0.99    0.00000   -57.27  LINEAR    3.25546E-01    58.17    5.06460E-01  -121.83
 -135.00    40.00      -5.13   -0.59    0.72    0.00000   -59.32  LINEAR    2.97885E-01    58.18    5.02054E-01  -121.82
 -130.00    40.00      -6.03   -0.67    0.44    0.00000   -61.66  LINEAR    2.68427E-01    58.18    4.97675E-01  -121.82
 -125.00    40.00      -7.09   -0.74    0.16    0.00000   -64.30  LINEAR    2.37494E-01    58.19    4.93455E-01  -121.81
 -120.00    40.00      -8.35   -0.81   -0.11    0.00000   -67.24  LINEAR    2.05378E-01    58.20    4.89520E-01  -121.80
 -115.00    40.00      -9.88   -0.87   -0.36    0.00000   -70.47  LINEAR    1.72338E-01    58.21    4.85982E-01  -121.79
 -110.00    40.00     -11.77   -0.93   -0.58    0.00000   -73.99  LINEAR    1.38599E-01    58.21    4.82942E-01  -121.79
 -105.00    40.00     -14.24   -0.97   -0.77    0.00000   -77.75  LINEAR    1.04350E-01    58.22    4.80487E-01  -121.78
 -100.00    40.00     -17.74   -1.01   -0.91    0.00000   -81.71  LINEAR    6.97481E-02    58.22    4.78684E-01  -121.78
  -95.00    40.00     -23.74   -1.03   -1.00    0.00000   -85.82  LINEAR    3.49267E-02    58.22    4.77582E-01  -121.78
  -90.00    40.00    -999.99   -1.03   -1.03    0.00000   -90.00  LINEAR    2.04355E-12    58.22    4.77211E-01  -121.78
  -85.00    40.00     -23.74   -1.03   -1.00    0.00000    85.82  LINEAR    3.49267E-02  -121.78    4.77582E-01  -121.78
  -80.00    40.00     -17.74   -1.01   -0.91    0.00000    81.71  LINEAR    6.97481E-02  -121.78    4.78684E-01  -121.78
  -75.00    40.00     -14.24   -0.97   -0.77    0.00000    77.75  LINEAR    1.04350E-01  -121.78    4.80487E-01  -121.78
  -70.00    40.00     -11.77   -0.93   -0.58    0.00000    73.99  LINEAR    1.38599E-01  -121.79    4.82942E-01  -121.79
  -65.00    40.00      -9.88   -0.87   -0.36    0.00000    70.47  LINEAR    1.72338E-01  -121.79    4.85982E-01  -121.79
  -60.00    40.00      -8.35   -0.81   -0.11    0.00000    67.24  LINEAR    2.05378E-01  -121.80    4.89520E-01  -121.80
  -55.00    40.00      -7.09   -0.74    0.16    0.00000    64.30  LINEAR    2.37494E-01  -121.81    4.93455E-01  -121.81
  -50.00    40.00      -6.03   -0.67    0.44    0.00000    61.66  LINEAR    2.68427E-01  -121.82    4.97675E-01  -121.82
  -45.00    40.00      -5.13   -0.59    0.72    0.00000    59.32  LINEAR    2.97885E-01  -121.82    5.02054E-01  -121.82
  -40.00    40.00      -4.35   -0.52    0.99    0.00000    57.27  LINEAR    3.25546E-01  -121.83    5.06460E-01  -121.83
  -35.00    40.00      -3.70   -0.44    1.24    0.00000    55.50  LINEAR    3.51071E-01  -121.84    5.10760E-01  -121.84
  -30.00    40.00      -3.15   -0.37    1.47    0.00000    53.99  LINEAR    3.74108E-01  -121.84    5.14817E-01  -121.84
  -25.00    40.00      -2.69   -0.31    1.67    0.00000    52.75  LINEAR    3.94314E-01  -121.85    5.18505E-01  -121.85
  -20.00    40.00      -2.32   -0.26    1.84    0.00000    51.74  LINEAR    4.11361E-01  -121.85    5.21703E-01  -121.85
  -15.00    40.00      -2.04   -0.21    1.98    0.00000    50.97  LINEAR    4.24956E-01  -121.86    5.24308E-01  -121.86
  -10.00    40.00      -1.84   -0.18    2.08    0.00000    50.43  LINEAR    4.34854E-01  -121.86    5.26233E-01  -121.86
   -5.00    40.00      -1.72   -0.16    2.14    0.00000    50.11  LINEAR    4.40870E-01  -121.86    5.27415E-01  -121.86
    0.00    40.00      -1.68   -0.16    2.16    0.00000    50.00  LINEAR    4.42888E-01  -121.86    5.27813E-01  -121.86
 -180.00    45.00      -0.85   -0.85    2.16    0.00000   -45.00  LINEAR    4.87205E-01    58.14    4.87205E-01  -121.86
 -175.00    45.00      -0.89   -0.86    2.13    0.00000   -45.11  LINEAR    4.84908E-01    58.14    4.86760E-01  -121.86
 -170.00    45.00      -1.02   -0.88    2.06    0.00000   -45.44  LINEAR    4.78065E-01    58.14    4.85440E-01  -121.86
 -165.00    45.00      -1.22   -0.92    1.94    0.00000   -45.99  LINEAR    4.66823E-01    58.14    4.83291E-01  -121.86
 -160.00    45.00      -1.51   -0.97    1.77    0.00000   -46.78  LINEAR    4.51415E-01    58.15    4.80386E-01  -121.85
 -155.00    45.00      -1.89   -1.04    1.57    0.00000   -47.81  LINEAR    4.32146E-01    58.15    4.76821E-01  -121.85
 -150.00    45.00      -2.36   -1.11    1.32    0.00000   -49.11  LINEAR    4.09383E-01    58.16    4.72715E-01  -121.84
 -145.00    45.00      -2.93   -1.20    1.03    0.00000   -50.68  LINEAR    3.83529E-01    58.17    4.68202E-01  -121.83
 -140.00    45.00      -3.60   -1.29    0.72    0.00000   -52.55  LINEAR    3.55006E-01    58.18    4.63427E-01  -121.82
 -135.00    45.00      -4.39   -1.38    0.38    0.00000   -54.74  LINEAR    3.24236E-01    58.19    4.58539E-01  -121.81
 -130.00    45.00      -5.31   -1.47    0.03    0.00000   -57.27  LINEAR    2.91625E-01    58.20    4.53688E-01  -121.80
 -125.00    45.00      -6.39   -1.56   -0.33    0.00000   -60.16  LINEAR    2.57547E-01    58.20    4.49019E-01  -121.80
 -120.00    45.00      -7.67   -1.65   -0.68    0.00000   -63.43  LINEAR    2.22335E-01    58.21    4.44671E-01  -121.79
 -115.00    45.00      -9.20   -1.72   -1.01    0.00000   -67.09  LINEAR    1.86276E-01    58.22    4.40766E-01  -121.78
 -110.00    45.00     -11.11   -1.79   -1.31    0.00000   -71.12  LINEAR    1.49605E-01    58.23    4.37415E-01  -121.77
 -105.00    45.00     -13.58   -1.84   -1.56    0.00000   -75.49  LINEAR    1.12511E-01    58.23    4.34711E-01  -121.77
 -100.00    45.00     -17.09   -1.88   -1.75    0.00000   -80.15  LINEAR    7.51420E-02    58.24    4.32725E-01  -121.76
  -95.00    45.00     -23.10   -1.91   -1.87    0.00000   -85.02  LINEAR    3.76088E-02    58.24    4.31513E-01  -121.76
  -90.00    45.00    -999.99   -1.91   -1.91    0.00000   -90.00  LINEAR    2.20011E-12    58.24    4.31105E-01  -121.76
  -85.00    45.00     -23.10   -1.91   -1.87    0.00000    85.02  LINEAR    3.76088E-02  -121.76    4.31513E-01  -121.76
  -80.00    45.00     -17.09   -1.88   -1.75    0.00000    80.15  LINEAR    7.51420E-02  -121.76    4.32725E-01  -121.76
  -75.00    45.00     -13.58   -1.84   -1.56    0.00000    75.49  LINEAR    1.12511E-01  -121.77    4.34711E-01  -121.77
  -70.00    45.00     -11.11   -1.79   -1.31    0.00000    71.12  LINEAR    1.49605E-01  -121.77    4.37415E-01  -121.77
  -65.00    45.00      -9.20   -1.72   -1.01    0.00000    67.09  LINEAR    1.86276E-01  -121.78    4.40766E-01  -121.78
  -60.00    45.00      -7.67   -1.65   -0.68    0.00000    63.43  LINEAR    2.22335E-01  -121.79    4.44671E-01  -121.79
  -55.00    45.00      -6.39   -1.56   -0.33    0.00000    60.16  LINEAR    2.57547E-01  -121.80    4.49019E-01  -121.80
  -50.00    45.00      -5.31   -1.47    0.03    0.00000    57.27  LINEAR    2.91625E-01  -121.80    4.53688E-01  -121.80
  -45.00    45.00      -4.39   -1.38    0.38    0.00000    54.74  LINEAR    3.24236E-01  -121.81    4.58539E-01  -121.81
  -40.00    45.00      -3.60   -1.29    0.72    0.00000    52.55  LINEAR    3.55006E-01  -121.82    4.63427E-01  -121.82
  -35.00    45.00      -2.93   -1.20    1.03    0.00000    50.68  LINEAR    3.83529E-01  -121.83    4.68202E-01  -121.83
  -30.00    45.00      -2.36   -1.11    1.32    0.00000    49.11  LINEAR    4.09383E-01  -121.84    4.72715E-01  -121.84
  -25.00    45.00      -1.89   -1.04    1.57    0.00000    47.81  LINEAR    4.32146E-01  -121.85    4.76821E-01  -121.85
  -20.00    45.00      -1.51   -0.97    1.77    0.00000    46.78  LINEAR    4.51415E-01  -121.85    4.80386E-01  -121.85
  -15.00    45.00      -1.22   -0.92    1.94    0.00000    45.99  LINEAR    4.66823E-01  -121.86    4.83291E-01  -121.86
  -10.00    45.00      -1.02   -0.88    2.06    0.00000    45.44  LINEAR    4.78065E-01  -121.86    4.85440E-01  -121.86
   -5.00    45.00      -0.89   -0.86    2.13    0.00000    45.11  LINEAR    4.84908E-01  -121.86    4.86760E-01  -121.86
    0.00    45.00      -0.85   -0.85    2.16    0.00000    45.00  LINEAR    4.87205E-01  -121.86    4.87205E-01  -121.86
 -180.00    50.00      -0.16   -1.68    2.16    0.00000   -40.00  LINEAR    5.27813E-01    58.14    4.42888E-01  -121.86
 -175.00    50.00      -0.20   -1.69    2.13    0.00000   -40.11  LINEAR    5.25241E-01    58.14    4.42413E-01  -121.86
 -170.00    50.00      -0.33   -1.72    2.04    0.00000   -40.43  LINEAR    5.17586E-01    58.14    4.41006E-01  -121.86
 -165.00    50.00      -0.54   -1.76    1.90    0.00000   -40.98  LINEAR    5.05025E-01    58.14    4.38715E-01  -121.86
 -160.00    50.00      -0.84   -1.82    1.71    0.00000   -41.76  LINEAR    4.87842E-01    58.15    4.35619E-01  -121.85
 -155.00    50.00      -1.23   -1.90    1.46    0.00000   -42.79  LINEAR    4.66412E-01    58.16    4.31824E-01  -121.84
 -150.00    50.00      -1.71   -1.99    1.16    0.00000   -44.10  LINEAR    4.41175E-01    58.17    4.27458E-01  -121.83
 -145.00    50.00      -2.30   -2.09    0.82    0.00000   -45.69  LINEAR    4.12617E-01    58.17    4.22665E-01  -121.83
 -140.00    50.00      -2.98   -2.19    0.44    0.00000   -47.61  LINEAR    3.81241E-01    58.18    4.17599E-01  -121.82
 -135.00    50.00      -3.79   -2.30    0.03    0.00000   -49.88  LINEAR    3.47545E-01    58.20    4.12420E-01  -121.80
 -130.00    50.00      -4.72   -2.41   -0.40    0.00000   -52.55  LINEAR    3.12000E-01    58.21    4.07287E-01  -121.79
 -125.00    50.00      -5.82   -2.51   -0.85    0.00000   -55.64  LINEAR    2.75034E-01    58.22    4.02354E-01  -121.78
 -120.00    50.00      -7.11   -2.61   -1.29    0.00000   -59.21  LINEAR    2.37019E-01    58.23    3.97765E-01  -121.77
 -115.00    50.00      -8.66   -2.70   -1.72    0.00000   -63.27  LINEAR    1.98264E-01    58.24    3.93649E-01  -121.76
 -110.00    50.00     -10.58   -2.78   -2.11    0.00000   -67.82  LINEAR    1.59015E-01    58.24    3.90121E-01  -121.76
 -105.00    50.00     -13.06   -2.85   -2.45    0.00000   -72.86  LINEAR    1.19454E-01    58.25    3.87275E-01  -121.75
 -100.00    50.00     -16.58   -2.89   -2.71    0.00000   -78.31  LINEAR    7.97131E-02    58.26    3.85188E-01  -121.74
  -95.00    50.00     -22.59   -2.92   -2.87    0.00000   -84.07  LINEAR    3.98764E-02    58.26    3.83914E-01  -121.74
  -90.00    50.00    -999.99   -2.93   -2.93    0.00000   -90.00  LINEAR    2.33236E-12    58.26    3.83485E-01  -121.74
  -85.00    50.00     -22.59   -2.92   -2.87    0.00000    84.07  LINEAR    3.98764E-02  -121.74    3.83914E-01  -121.74
  -80.00    50.00     -16.58   -2.89   -2.71    0.00000    78.31  LINEAR    7.97131E-02  -121.74    3.85188E-01  -121.74
  -75.00    50.00     -13.06   -2.85   -2.45    0.00000    72.86  LINEAR    1.19454E-01  -121.75    3.87275E-01  -121.75
  -70.00    50.00     -10.58   -2.78   -2.11    0.00000    67.82  LINEAR    1.59015E-01  -121.76    3.90121E-01  -121.76
  -65.00    50.00      -8.66   -2.70   -1.72    0.00000    63.27  LINEAR    1.98264E-01  -121.76    3.93649E-01  -121.76
  -60.00    50.00      -7.11   -2.61   -1.29    0.00000    59.21  LINEAR    2.37019E-01  -121.77    3.97765E-01  -121.77
  -55.00    50.00      -5.82   -2.51   -0.85    0.00000    55.64  LINEAR    2.75034E-01  -121.78    4.02354E-01  -121.78
  -50.00    50.00      -4.72   -2.41   -0.40    0.00000    52.55  LINEAR    3.12000E-01  -121.79    4.07287E-01  -121.79
  -45.00    50.00      -3.79   -2.30    0.03    0.00000    49.88  LINEAR    3.47545E-01  -121.80    4.12420E-01  -121.80
  -40.00    50.00      -2.98   -2.19    0.44    0.00000    47.61  LINEAR    3.81241E-01  -121.82    4.17599E-01  -121.82
  -35.00    50.00      -2.30   -2.09    0.82    0.00000    45.69  LINEAR    4.12617E-01  -121.83    4.22665E-01  -121.83
  -30.00    50.00      -1.71   -1.99    1.16    0.00000    44.10  LINEAR    4.41175E-01  -121.83    4.27458E-01  -121.83
  -25.00    50.00      -1.23   -1.90    1.46    0.00000    42.79  LINEAR    4.66412E-01  -121.84    4.31824E-01  -121.84
  -20.00    50.00      -0.84   -1.82    1.71    0.00000    41.76  LINEAR    4.87842E-01  -121.85    4.35619E-01  -121.85
  -15.00    50.00      -0.54   -1.76    1.90    0.00000    40.98  LINEAR    5.05025E-01  -121.86    4.38715E-01  -121.86
  -10.00    50.00      -0.33   -1.72    2.04    0.00000    40.43  LINEAR    5.17586E-01  -121.86    4.41006E-01  -121.86
   -5.00    50.00      -0.20   -1.69    2.13    0.00000    40.11  LINEAR    5.25241E-01  -121.86    4.42413E-01  -121.86
    0.00    50.00      -0.16   -1.68    2.16    0.00000    40.00  LINEAR    5.27813E-01  -121.86    4.42888E-01  -121.86
 -180.00    55.00       0.43   -2.67    2.16    0.00000   -35.00  LINEAR    5.64405E-01    58.14    3.95201E-01  -121.86
 -175.00    55.00       0.38   -2.68    2.13    0.00000   -35.10  LINEAR    5.61568E-01    58.14    3.94716E-01  -121.86
 -170.00    55.00       0.25   -2.71    2.03    0.00000   -35.41  LINEAR    5.53130E-01    58.14    3.93281E-01  -121.86
 -165.00    55.00       0.03   -2.76    1.86    0.00000   -35.94  LINEAR    5.39302E-01    58.14    3.90945E-01  -121.86
 -160.00    55.00      -0.28   -2.83    1.64    0.00000   -36.69  LINEAR    5.20422E-01    58.15    3.87790E-01  -121.85
 -155.00    55.00      -0.68   -2.92    1.35    0.00000   -37.69  LINEAR    4.96933E-01    58.16    3.83927E-01  -121.84
 -150.00    55.00      -1.18   -3.02    1.01    0.00000   -38.96  LINEAR    4.69353E-01    58.17    3.79486E-01  -121.83
 -145.00    55.00      -1.77   -3.13    0.61    0.00000   -40.52  LINEAR    4.38252E-01    58.18    3.74616E-01  -121.82
 -140.00    55.00      -2.47   -3.25    0.16    0.00000   -42.43  LINEAR    4.04215E-01    58.19    3.69475E-01  -121.81
 -135.00    55.00      -3.29   -3.38   -0.33    0.00000   -44.72  LINEAR    3.67815E-01    58.20    3.64226E-01  -121.80
 -130.00    55.00      -4.25   -3.50   -0.85    0.00000   -47.45  LINEAR    3.29589E-01    58.22    3.59031E-01  -121.78
 -125.00    55.00      -5.36   -3.62   -1.40    0.00000   -50.68  LINEAR    2.90017E-01    58.23    3.54045E-01  -121.77
 -120.00    55.00      -6.66   -3.74   -1.95    0.00000   -54.47  LINEAR    2.49506E-01    58.24    3.49411E-01  -121.76
 -115.00    55.00      -8.23   -3.84   -2.49    0.00000   -58.89  LINEAR    2.08386E-01    58.25    3.45261E-01  -121.75
 -110.00    55.00     -10.16   -3.93   -3.00    0.00000   -63.97  LINEAR    1.66908E-01    58.26    3.41706E-01  -121.74
 -105.00    55.00     -12.65   -4.01   -3.45    0.00000   -69.71  LINEAR    1.25247E-01    58.27    3.38842E-01  -121.73
 -100.00    55.00     -16.17   -4.06   -3.80    0.00000   -76.07  LINEAR    8.35107E-02    58.27    3.36743E-01  -121.73
  -95.00    55.00     -22.19   -4.09   -4.03    0.00000   -82.90  LINEAR    4.17554E-02    58.28    3.35462E-01  -121.72
  -90.00    55.00    -999.99   -4.10   -4.10    0.00000   -90.00  LINEAR    2.44185E-12    58.28    3.35031E-01  -121.72
  -85.00    55.00     -22.19   -4.09   -4.03    0.00000    82.90  LINEAR    4.17554E-02  -121.72    3.35462E-01  -121.72
  -80.00    55.00     -16.17   -4.06   -3.80    0.00000    76.07  LINEAR    8.35107E-02  -121.73    3.36743E-01  -121.73
  -75.00    55.00     -12.65   -4.01   -3.45    0.00000    69.71  LINEAR    1.25247E-01  -121.73    3.38842E-01  -121.73
  -70.00    55.00     -10.16   -3.93   -3.00    0.00000    63.97  LINEAR    1.66908E-01  -121.74    3.41706E-01  -121.74
  -65.00    55.00      -8.23   -3.84   -2.49    0.00000    58.89  LINEAR    2.08386E-01  -121.75    3.45261E-01  -121.75
  -60.00    55.00      -6.66   -3.74   -1.95    0.00000    54.47  LINEAR    2.49506E-01  -121.76    3.49411E-01  -121.76
  -55.00    55.00      -5.36   -3.62   -1.40    0.00000    50.68  LINEAR    2.90017E-01  -121.77    3.54045E-01  -121.77
  -50.00    55.00      -4.25   -3.50   -0.85    0.00000    47.45  LINEAR    3.29589E-01  -121.78    3.59031E-01  -121.78
  -45.00    55.00      -3.29   -3.38   -0.33    0.00000    44.72  LINEAR    3.67815E-01  -121.80    3.64226E-01  -121.80
  -40.00    55.00      -2.47   -3.25    0.16    0.00000    42.43  LINEAR    4.04215E-01  -121.81    3.69475E-01  -121.81
  -35.00    55.00      -1.77   -3.13    0.61    0.00000    40.52  LINEAR    4.38252E-01  -121.82    3.74616E-01  -121.82
  -30.00    55.00      -1.18   -3.02    1.01    0.00000    38.96  LINEAR    4.69353E-01  -121.83    3.79486E-01  -121.83
  -25.00    55.00      -0.68   -2.92    1.35    0.00000    37.69  LINEAR    4.96933E-01  -121.84    3.83927E-01  -121.84
  -20.00    55.00      -0.28   -2.83    1.64    0.00000    36.69  LINEAR    5.20422E-01  -121.85    3.87790E-01  -121.85
  -15.00    55.00       0.03   -2.76    1.86    0.00000    35.94  LINEAR    5.39302E-01  -121.86    3.90945E-01  -121.86
  -10.00    55.00       0.25   -2.71    2.03    0.00000    35.41  LINEAR    5.53130E-01  -121.86    3.93281E-01  -121.86
   -5.00    55.00       0.38   -2.68    2.13    0.00000    35.10  LINEAR    5.61568E-01  -121.86    3.94716E-01  -121.86
    0.00    55.00       0.43   -2.67    2.16    0.00000    35.00  LINEAR    5.64405E-01  -121.86    3.95201E-01  -121.86
 -180.00    60.00       0.91   -3.86    2.16    0.00000   -30.00  LINEAR    5.96701E-01    58.14    3.44506E-01  -121.86
 -175.00    60.00       0.86   -3.87    2.12    0.00000   -30.09  LINEAR    5.93617E-01    58.14    3.44034E-01  -121.86
 -170.00    60.00       0.73   -3.91    2.01    0.00000   -30.38  LINEAR    5.84446E-01    58.14    3.42635E-01  -121.86
 -165.00    60.00       0.50   -3.97    1.83    0.00000   -30.87  LINEAR    5.69435E-01    58.15    3.40361E-01  -121.85
 -160.00    60.00       0.19   -4.05    1.58    0.00000   -31.57  LINEAR    5.48974E-01    58.15    3.37291E-01  -121.85
 -155.00    60.00      -0.23   -4.14    1.25    0.00000   -32.50  LINEAR    5.23573E-01    58.16    3.33535E-01  -121.84
 -150.00    60.00      -0.73   -4.26    0.86    0.00000   -33.69  LINEAR    4.93831E-01    58.17    3.29221E-01  -121.83
 -145.00    60.00      -1.34   -4.38    0.41    0.00000   -35.18  LINEAR    4.60397E-01    58.19    3.24494E-01  -121.81
 -140.00    60.00      -2.06   -4.52   -0.11    0.00000   -37.00  LINEAR    4.23936E-01    58.20    3.19511E-01  -121.80
 -135.00    60.00      -2.89   -4.66   -0.68    0.00000   -39.23  LINEAR    3.85096E-01    58.21    3.14430E-01  -121.79
 -130.00    60.00      -3.86   -4.80   -1.29    0.00000   -41.93  LINEAR    3.44474E-01    58.23    3.09406E-01  -121.77
 -125.00    60.00      -4.99   -4.93   -1.95    0.00000   -45.19  LINEAR    3.02599E-01    58.24    3.04590E-01  -121.76
 -120.00    60.00      -6.31   -5.06   -2.63    0.00000   -49.11  LINEAR    2.59912E-01    58.25    3.00120E-01  -121.75
 -115.00    60.00      -7.89   -5.18   -3.31    0.00000   -53.80  LINEAR    2.16759E-01    58.27    2.96121E-01  -121.73
 -110.00    60.00      -9.83   -5.28   -3.97    0.00000   -59.36  LINEAR    1.73394E-01    58.28    2.92699E-01  -121.72
 -105.00    60.00     -12.33   -5.36   -4.56    0.00000   -65.85  LINEAR    1.29978E-01    58.29    2.89944E-01  -121.71
 -100.00    60.00     -15.86   -5.42   -5.04    0.00000   -73.26  LINEAR    8.65986E-02    58.29    2.87925E-01  -121.71
  -95.00    60.00     -21.88   -5.46   -5.36    0.00000   -81.42  LINEAR    4.32788E-02    58.30    2.86694E-01  -121.70
  -90.00    60.00    -999.99   -5.47   -5.47    0.00000   -90.00  LINEAR    2.53054E-12    58.30    2.86281E-01  -121.70
  -85.00    60.00     -21.88   -5.46   -5.36    0.00000    81.42  LINEAR    4.32788E-02  -121.70    2.86694E-01  -121.70
  -80.00    60.00     -15.86   -5.42   -5.04    0.00000    73.26  LINEAR    8.65986E-02  -121.71    2.87925E-01  -121.71
  -75.00    60.00     -12.33   -5.36   -4.56    0.00000    65.85  LINEAR    1.29978E-01  -121.71    2.89944E-01  -121.71
  -70.00    60.00      -9.83   -5.28   -3.97    0.00000    59.36  LINEAR    1.73394E-01  -121.72    2.92699E-01  -121.72
  -65.00    60.00      -7.89   -5.18   -3.31    0.00000    53.80  LINEAR    2.16759E-01  -121.73    2.96121E-01  -121.73
  -60.00    60.00      -6.31   -5.06   -2.63    0.00000    49.11  LINEAR    2.59912E-01  -121.75    3.00120E-01  -121.75
  -55.00    60.00      -4.99   -4.93   -1.95    0.00000    45.19  LINEAR    3.02599E-01  -121.76    3.04590E-01  -121.76
  -50.00    60.00      -3.86   -4.80   -1.29    0.00000    41.93  LINEAR    3.44474E-01  -121.77    3.09406E-01  -121.77
  -45.00    60.00      -2.89   -4.66   -0.68    0.00000    39.23  LINEAR    3.85096E-01  -121.79    3.14430E-01  -121.79
  -40.00    60.00      -2.06   -4.52   -0.11    0.00000    37.00  LINEAR    4.23936E-01  -121.80    3.19511E-01  -121.80
  -35.00    60.00      -1.34   -4.38    0.41    0.00000    35.18  LINEAR    4.60397E-01  -121.81    3.24494E-01  -121.81
  -30.00    60.00      -0.73   -4.26    0.86    0.00000    33.69  LINEAR    4.93831E-01  -121.83    3.29221E-01  -121.83
  -25.00    60.00      -0.23   -4.14    1.25    0.00000    32.50  LINEAR    5.23573E-01  -121.84    3.33535E-01  -121.84
  -20.00    60.00       0.19   -4.05    1.58    0.00000    31.57  LINEAR    5.48974E-01  -121.85    3.37291E-01  -121.85
  -15.00    60.00       0.50   -3.97    1.83    0.00000    30.87  LINEAR    5.69435E-01  -121.85    3.40361E-01  -121.85
  -10.00    60.00       0.73   -3.91    2.01    0.00000    30.38  LINEAR    5.84446E-01  -121.86    3.42635E-01  -121.86
   -5.00    60.00       0.86   -3.87    2.12    0.00000    30.09  LINEAR    5.93617E-01  -121.86    3.44034E-01  -121.86
    0.00    60.00       0.91   -3.86    2.16    0.00000    30.00  LINEAR    5.96701E-01  -121.86    3.44506E-01  -121.86
 -180.00    65.00       1.30   -5.32    2.16    0.00000   -25.00  LINEAR    6.24457E-01    58.14    2.91189E-01  -121.86
 -175.00    65.00       1.26   -5.34    2.12    0.00000   -25.08  LINEAR    6.21147E-01    58.14    2.90752E-01  -121.86
 -170.00    65.00       1.12   -5.37    2.00    0.00000   -25.34  LINEAR    6.11314E-01    58.14    2.89458E-01  -121.86
 -165.00    65.00       0.89   -5.44    1.80    0.00000   -25.77  LINEAR    5.95234E-01    58.15    2.87354E-01  -121.85
 -160.00    65.00       0.56   -5.52    1.52    0.00000   -26.39  LINEAR    5.73349E-01    58.15    2.84515E-01  -121.85
 -155.00    65.00       0.14   -5.63    1.16    0.00000   -27.23  LINEAR    5.46233E-01    58.17    2.81044E-01  -121.83
 -150.00    65.00      -0.38   -5.75    0.73    0.00000   -28.30  LINEAR    5.14558E-01    58.18    2.77061E-01  -121.82
 -145.00    65.00      -1.00   -5.89    0.22    0.00000   -29.65  LINEAR    4.79050E-01    58.19    2.72702E-01  -121.81
 -140.00    65.00      -1.73   -6.04   -0.36    0.00000   -31.33  LINEAR    4.40449E-01    58.21    2.68111E-01  -121.79
 -135.00    65.00      -2.58   -6.19   -1.01    0.00000   -33.40  LINEAR    3.99470E-01    58.22    2.63434E-01  -121.78
 -130.00    65.00      -3.56   -6.35   -1.72    0.00000   -35.96  LINEAR    3.56767E-01    58.24    2.58815E-01  -121.76
 -125.00    65.00      -4.70   -6.50   -2.49    0.00000   -39.11  LINEAR    3.12913E-01    58.25    2.54393E-01  -121.75
 -120.00    65.00      -6.03   -6.64   -3.31    0.00000   -43.00  LINEAR    2.68376E-01    58.27    2.50292E-01  -121.73
 -115.00    65.00      -7.62   -6.77   -4.16    0.00000   -47.81  LINEAR    2.23519E-01    58.28    2.46626E-01  -121.72
 -110.00    65.00      -9.57   -6.88   -5.01    0.00000   -53.74  LINEAR    1.78593E-01    58.29    2.43493E-01  -121.71
 -105.00    65.00     -12.08   -6.97   -5.80    0.00000   -60.97  LINEAR    1.33749E-01    58.30    2.40972E-01  -121.70
 -100.00    65.00     -15.61   -7.03   -6.47    0.00000   -69.58  LINEAR    8.90482E-02    58.31    2.39126E-01  -121.69
  -95.00    65.00     -21.64   -7.07   -6.93    0.00000   -79.41  LINEAR    4.44838E-02    58.31    2.38001E-01  -121.69
  -90.00    65.00    -999.99   -7.09   -7.09    0.00000   -90.00  LINEAR    2.60062E-12    58.31    2.37623E-01  -121.69
  -85.00    65.00     -21.64   -7.07   -6.93    0.00000    79.41  LINEAR    4.44838E-02  -121.69    2.38001E-01  -121.69
  -80.00    65.00     -15.61   -7.03   -6.47    0.00000    69.58  LINEAR    8.90482E-02  -121.69    2.39126E-01  -121.69
  -75.00    65.00     -12.08   -6.97   -5.80    0.00000    60.97  LINEAR    1.33749E-01  -121.70    2.40972E-01  -121.70
  -70.00    65.00      -9.57   -6.88   -5.01    0.00000    53.74  LINEAR    1.78593E-01  -121.71    2.43493E-01  -121.71
  -65.00    65.00      -7.62   -6.77   -4.16    0.00000    47.81  LINEAR    2.23519E-01  -121.72    2.46626E-01  -121.72
  -60.00    65.00      -6.03   -6.64   -3.31    0.00000    43.00  LINEAR    2.68376E-01  -121.73    2.50292E-01  -121.73
  -55.00    65.00      -4.70   -6.50   -2.49    0.00000    39.11  LINEAR    3.12913E-01  -121.75    2.54393E-01  -121.75
  -50.00    65.00      -3.56   -6.35   -1.72    0.00000    35.96  LINEAR    3.56767E-01  -121.76    2.58815E-01  -121.76
  -45.00    65.00      -2.58   -6.19   -1.01    0.00000    33.40  LINEAR    3.99470E-01  -121.78    2.63434E-01  -121.78
  -40.00    65.00      -1.73   -6.04   -0.36    0.00000    31.33  LINEAR    4.40449E-01  -121.79    2.68111E-01  -121.79
  -35.00    65.00      -1.00   -5.89    0.22    0.00000    29.65  LINEAR    4.79050E-01  -121.81    2.72702E-01  -121.81
  -30.00    65.00      -0.38   -5.75    0.73    0.00000    28.30  LINEAR    5.14558E-01  -121.82    2.77061E-01  -121.82
  -25.00    65.00       0.14   -5.63    1.16    0.00000    27.23  LINEAR    5.46233E-01  -121.83    2.81044E-01  -121.83
  -20.00    65.00       0.56   -5.52    1.52    0.00000    26.39  LINEAR    5.73349E-01  -121.85    2.84515E-01  -121.85
  -15.00    65.00       0.89   -5.44    1.80    0.00000    25.77  LINEAR    5.95234E-01  -121.85    2.87354E-01  -121.85
  -10.00    65.00       1.12   -5.37    2.00    0.00000    25.34  LINEAR    6.11314E-01  -121.86    2.89458E-01  -121.86
   -5.00    65.00       1.26   -5.34    2.12    0.00000    25.08  LINEAR    6.21147E-01  -121.86    2.90752E-01  -121.86
    0.00    65.00       1.30   -5.32    2.16    0.00000    25.00  LINEAR    6.24457E-01  -121.86    2.91189E-01  -121.86
 -180.00    70.00       1.62   -7.16    2.16    0.00000   -20.00  LINEAR    6.47459E-01    58.14    2.35656E-01  -121.86
 -175.00    70.00       1.57   -7.17    2.12    0.00000   -20.07  LINEAR    6.43955E-01    58.14    2.35276E-01  -121.86
 -170.00    70.00       1.43   -7.22    1.99    0.00000   -20.28  LINEAR    6.33549E-01    58.14    2.34150E-01  -121.86
 -165.00    70.00       1.19   -7.28    1.77    0.00000   -20.65  LINEAR    6.16545E-01    58.15    2.32320E-01  -121.85
 -160.00    70.00       0.86   -7.38    1.47    0.00000   -21.17  LINEAR    5.93432E-01    58.16    2.29853E-01  -121.84
 -155.00    70.00       0.43   -7.49    1.08    0.00000   -21.88  LINEAR    5.64841E-01    58.17    2.26838E-01  -121.83
 -150.00    70.00      -0.10   -7.63    0.61    0.00000   -22.80  LINEAR    5.31510E-01    58.18    2.23381E-01  -121.82
 -145.00    70.00      -0.73   -7.77    0.06    0.00000   -23.96  LINEAR    4.94233E-01    58.19    2.19601E-01  -121.81
 -140.00    70.00      -1.47   -7.93   -0.58    0.00000   -25.41  LINEAR    4.53817E-01    58.21    2.15622E-01  -121.79
 -135.00    70.00      -2.33   -8.10   -1.31    0.00000   -27.24  LINEAR    4.11036E-01    58.23    2.11573E-01  -121.77
 -130.00    70.00      -3.32   -8.26   -2.11    0.00000   -29.52  LINEAR    3.66593E-01    58.24    2.07579E-01  -121.76
 -125.00    70.00      -4.47   -8.42   -3.00    0.00000   -32.40  LINEAR    3.21099E-01    58.26    2.03757E-01  -121.74
 -120.00    70.00      -5.82   -8.58   -3.97    0.00000   -36.05  LINEAR    2.75047E-01    58.28    2.00218E-01  -121.72
 -115.00    70.00      -7.42   -8.71   -5.01    0.00000   -40.74  LINEAR    2.28808E-01    58.29    1.97056E-01  -121.71
 -110.00    70.00      -9.37   -8.83   -6.09    0.00000   -46.78  LINEAR    1.82634E-01    58.30    1.94355E-01  -121.70
 -105.00    70.00     -11.89   -8.93   -7.15    0.00000   -54.58  LINEAR    1.36662E-01    58.32    1.92184E-01  -121.68
 -100.00    70.00     -15.43   -9.00   -8.11    0.00000   -64.49  LINEAR    9.09319E-02    58.32    1.90595E-01  -121.68
  -95.00    70.00     -21.46   -9.05   -8.81    0.00000   -76.53  LINEAR    4.54077E-02    58.33    1.89627E-01  -121.67
  -90.00    70.00    -999.99   -9.06   -9.06    0.00000   -90.00  LINEAR    2.65429E-12    58.33    1.89301E-01  -121.67
  -85.00    70.00     -21.46   -9.05   -8.81    0.00000    76.53  LINEAR    4.54077E-02  -121.67    1.89627E-01  -121.67
  -80.00    70.00     -15.43   -9.00   -8.11    0.00000    64.49  LINEAR    9.09319E-02  -121.68    1.90595E-01  -121.68
  -75.00    70.00     -11.89   -8.93   -7.15    0.00000    54.58  LINEAR    1.36662E-01  -121.68    1.92184E-01  -121.68
  -70.00    70.00      -9.37   -8.83   -6.09    0.00000    46.78  LINEAR    1.82634E-01  -121.70    1.94355E-01  -121.70
  -65.00    70.00      -7.42   -8.71   -5.01    0.00000    40.74  LINEAR    2.28808E-01  -121.71    1.97056E-01  -121.71
  -60.00    70.00      -5.82   -8.58   -3.97    0.00000    36.05  LINEAR    2.75047E-01  -121.72    2.00218E-01  -121.72
  -55.00    70.00      -4.47   -8.42   -3.00    0.00000    32.40  LINEAR    3.21099E-01  -121.74    2.03757E-01  -121.74
  -50.00    70.00      -3.32   -8.26   -2.11    0.00000    29.52  LINEAR    3.66593E-01  -121.76    2.07579E-01  -121.76
  -45.00    70.00      -2.33   -8.10   -1.31    0.00000    27.24  LINEAR    4.11036E-01  -121.77    2.11573E-01  -121.77
  -40.00    70.00      -1.47   -7.93   -0.58    0.00000    25.41  LINEAR    4.53817E-01  -121.79    2.15622E-01  -121.79
  -35.00    70.00      -0.73   -7.77    0.06    0.00000    23.96  LINEAR    4.94233E-01  -121.81    2.19601E-01  -121.81
  -30.00    70.00      -0.10   -7.63    0.61    0.00000    22.80  LINEAR    5.31510E-01  -121.82    2.23381E-01  -121.82
  -25.00    70.00       0.43   -7.49    1.08    0.00000    21.88  LINEAR    5.64841E-01  -121.83    2.26838E-01  -121.83
  -20.00    70.00       0.86   -7.38    1.47    0.00000    21.17  LINEAR    5.93432E-01  -121.84    2.29853E-01  -121.84
  -15.00    70.00       1.19   -7.28    1.77    0.00000    20.65  LINEAR    6.16545E-01  -121.85    2.32320E-01  -121.85
  -10.00    70.00       1.43   -7.22    1.99    0.00000    20.28  LINEAR    6.33549E-01  -121.86    2.34150E-01  -121.86
   -5.00    70.00       1.57   -7.17    2.12    0.00000    20.07  LINEAR    6.43955E-01  -121.86    2.35276E-01  -121.86
    0.00    70.00       1.62   -7.16    2.16    0.00000    20.00  LINEAR    6.47459E-01  -121.86    2.35656E-01  -121.86
 -180.00    75.00       1.86   -9.58    2.16    0.00000   -15.00  LINEAR    6.65534E-01    58.14    1.78329E-01  -121.86
 -175.00    75.00       1.81   -9.60    2.11    0.00000   -15.05  LINEAR    6.61872E-01    58.14    1.78026E-01  -121.86
 -170.00    75.00       1.67   -9.64    1.98    0.00000   -15.22  LINEAR    6.50999E-01    58.14    1.77126E-01  -121.86
 -165.00    75.00       1.43   -9.71    1.75    0.00000   -15.50  LINEAR    6.33245E-01    58.15    1.75663E-01  -121.85
 -160.00    75.00       1.09   -9.81    1.43    0.00000   -15.92  LINEAR    6.09135E-01    58.16    1.73692E-01  -121.84
 -155.00    75.00       0.65   -9.93    1.02    0.00000   -16.47  LINEAR    5.79350E-01    58.17    1.71284E-01  -121.83
 -150.00    75.00       0.12  -10.07    0.51    0.00000   -17.19  LINEAR    5.44683E-01    58.18    1.68525E-01  -121.82
 -145.00    75.00      -0.52  -10.23   -0.08    0.00000   -18.11  LINEAR    5.05984E-01    58.20    1.65510E-01  -121.80
 -140.00    75.00      -1.27  -10.40   -0.77    0.00000   -19.28  LINEAR    4.64115E-01    58.22    1.62339E-01  -121.78
 -135.00    75.00      -2.14  -10.57   -1.56    0.00000   -20.75  LINEAR    4.19898E-01    58.23    1.59115E-01  -121.77
 -130.00    75.00      -3.15  -10.75   -2.45    0.00000   -22.63  LINEAR    3.74079E-01    58.25    1.55937E-01  -121.75
 -125.00    75.00      -4.31  -10.92   -3.45    0.00000   -25.04  LINEAR    3.27297E-01    58.27    1.52898E-01  -121.73
 -120.00    75.00      -5.66  -11.08   -4.56    0.00000   -28.19  LINEAR    2.80064E-01    58.29    1.50086E-01  -121.71
 -115.00    75.00      -7.27  -11.23   -5.80    0.00000   -32.38  LINEAR    2.32761E-01    58.30    1.47576E-01  -121.70
 -110.00    75.00      -9.23  -11.35   -7.15    0.00000   -38.08  LINEAR    1.85636E-01    58.32    1.45433E-01  -121.68
 -105.00    75.00     -11.76  -11.46   -8.59    0.00000   -45.99  LINEAR    1.38814E-01    58.33    1.43711E-01  -121.67
 -100.00    75.00     -15.30  -11.53  -10.01    0.00000   -57.05  LINEAR    9.23173E-02    58.33    1.42451E-01  -121.67
  -95.00    75.00     -21.33  -11.58  -11.14    0.00000   -71.98  LINEAR    4.60853E-02    58.34    1.41683E-01  -121.66
  -90.00    75.00    -999.99  -11.60  -11.60    0.00000   -90.00  LINEAR    2.69362E-12    58.34    1.41426E-01  -121.66
  -85.00    75.00     -21.33  -11.58  -11.14    0.00000    71.98  LINEAR    4.60853E-02  -121.66    1.41683E-01  -121.66
  -80.00    75.00     -15.30  -11.53  -10.01    0.00000    57.05  LINEAR    9.23173E-02  -121.67    1.42451E-01  -121.67
  -75.00    75.00     -11.76  -11.46   -8.59    0.00000    45.99  LINEAR    1.38814E-01  -121.67    1.43711E-01  -121.67
  -70.00    75.00      -9.23  -11.35   -7.15    0.00000    38.08  LINEAR    1.85636E-01  -121.68    1.45433E-01  -121.68
  -65.00    75.00      -7.27  -11.23   -5.80    0.00000    32.38  LINEAR    2.32761E-01  -121.70    1.47576E-01  -121.70
  -60.00    75.00      -5.66  -11.08   -4.56    0.00000    28.19  LINEAR    2.80064E-01  -121.71    1.50086E-01  -121.71
  -55.00    75.00      -4.31  -10.92   -3.45    0.00000    25.04  LINEAR    3.27297E-01  -121.73    1.52898E-01  -121.73
  -50.00    75.00      -3.15  -10.75   -2.45    0.00000    22.63  LINEAR    3.74079E-01  -121.75    1.55937E-01  -121.75
  -45.00    75.00      -2.14  -10.57   -1.56    0.00000    20.75  LINEAR    4.19898E-01  -121.77    1.59115E-01  -121.77
[...]
  -70.00   340.00     -16.70    1.40    1.47    0.00000   -82.90  LINEAR    7.86145E-02    58.16    6.31517E-01  -121.84
  -65.00   340.00     -14.84    1.42    1.52    0.00000   -81.26  LINEAR    9.73100E-02    58.15    6.32620E-01  -121.85
  -60.00   340.00     -13.36    1.43    1.58    0.00000   -79.69  LINEAR    1.15360E-01    58.15    6.33900E-01  -121.85
  -55.00   340.00     -12.15    1.45    1.64    0.00000   -78.21  LINEAR    1.32632E-01    58.15    6.35319E-01  -121.85
  -50.00   340.00     -11.14    1.47    1.71    0.00000   -76.83  LINEAR    1.48991E-01    58.15    6.36833E-01  -121.85
  -45.00   340.00     -10.29    1.50    1.77    0.00000   -75.57  LINEAR    1.64302E-01    58.15    6.38397E-01  -121.85
  -40.00   340.00      -9.58    1.52    1.84    0.00000   -74.42  LINEAR    1.78433E-01    58.15    6.39964E-01  -121.85
  -35.00   340.00      -8.97    1.54    1.91    0.00000   -73.40  LINEAR    1.91257E-01    58.14    6.41486E-01  -121.86
  -30.00   340.00      -8.47    1.56    1.97    0.00000   -72.50  LINEAR    2.02652E-01    58.14    6.42916E-01  -121.86
  -25.00   340.00      -8.06    1.57    2.02    0.00000   -71.74  LINEAR    2.12505E-01    58.14    6.44211E-01  -121.86
  -20.00   340.00      -7.73    1.59    2.07    0.00000   -71.12  LINEAR    2.20716E-01    58.14    6.45331E-01  -121.86
  -15.00   340.00      -7.48    1.60    2.11    0.00000   -70.63  LINEAR    2.27197E-01    58.14    6.46240E-01  -121.86
  -10.00   340.00      -7.30    1.61    2.14    0.00000   -70.28  LINEAR    2.31879E-01    58.14    6.46910E-01  -121.86
   -5.00   340.00      -7.20    1.62    2.15    0.00000   -70.07  LINEAR    2.34709E-01    58.14    6.47321E-01  -121.86
    0.00   340.00      -7.16    1.62    2.16    0.00000   -70.00  LINEAR    2.35656E-01    58.14    6.47459E-01  -121.86
 -180.00   345.00      -9.58    1.86    2.16    0.00000    75.00  LINEAR    1.78329E-01  -121.86    6.65534E-01  -121.86
 -175.00   345.00      -9.62    1.86    2.16    0.00000    75.05  LINEAR    1.77629E-01  -121.86    6.65453E-01  -121.86
 -170.00   345.00      -9.72    1.85    2.15    0.00000    75.22  LINEAR    1.75535E-01  -121.86    6.65211E-01  -121.86
 -165.00   345.00      -9.89    1.85    2.13    0.00000    75.49  LINEAR    1.72067E-01  -121.86    6.64816E-01  -121.86
 -160.00   345.00     -10.14    1.84    2.11    0.00000    75.87  LINEAR    1.67259E-01  -121.86    6.64281E-01  -121.86
 -155.00   345.00     -10.46    1.83    2.08    0.00000    76.35  LINEAR    1.61157E-01  -121.86    6.63621E-01  -121.86
 -150.00   345.00     -10.87    1.82    2.05    0.00000    76.94  LINEAR    1.53817E-01  -121.86    6.62857E-01  -121.86
 -145.00   345.00     -11.36    1.81    2.02    0.00000    77.62  LINEAR    1.45306E-01  -121.86    6.62013E-01  -121.86
 -140.00   345.00     -11.95    1.80    1.98    0.00000    78.40  LINEAR    1.35701E-01  -121.86    6.61114E-01  -121.86
 -135.00   345.00     -12.66    1.79    1.94    0.00000    79.27  LINEAR    1.25085E-01  -121.86    6.60188E-01  -121.86
 -130.00   345.00     -13.50    1.78    1.90    0.00000    80.23  LINEAR    1.13548E-01  -121.86    6.59263E-01  -121.86
 -125.00   345.00     -14.50    1.76    1.86    0.00000    81.26  LINEAR    1.01184E-01  -121.86    6.58367E-01  -121.86
 -120.00   345.00     -15.71    1.75    1.83    0.00000    82.37  LINEAR    8.80919E-02  -121.85    6.57527E-01  -121.85
 -115.00   345.00     -17.18    1.74    1.80    0.00000    83.54  LINEAR    7.43726E-02  -121.85    6.56768E-01  -121.85
 -110.00   345.00     -19.02    1.73    1.77    0.00000    84.76  LINEAR    6.01289E-02  -121.85    6.56114E-01  -121.85
 -105.00   345.00     -21.45    1.73    1.75    0.00000    86.03  LINEAR    4.54649E-02  -121.85    6.55583E-01  -121.85
 -100.00   345.00     -24.92    1.72    1.73    0.00000    87.34  LINEAR    3.04854E-02  -121.85    6.55193E-01  -121.85
  -95.00   345.00     -30.91    1.72    1.72    0.00000    88.66  LINEAR    1.52953E-02  -121.85    6.54954E-01  -121.85
  -90.00   345.00    -999.99    1.72    1.72    0.00000    90.00  LINEAR    8.95510E-13  -121.85    6.54873E-01  -121.85
  -85.00   345.00     -30.91    1.72    1.72    0.00000   -88.66  LINEAR    1.52953E-02    58.15    6.54954E-01  -121.85
  -80.00   345.00     -24.92    1.72    1.73    0.00000   -87.34  LINEAR    3.04854E-02    58.15    6.55193E-01  -121.85
  -75.00   345.00     -21.45    1.73    1.75    0.00000   -86.03  LINEAR    4.54649E-02    58.15    6.55583E-01  -121.85
  -70.00   345.00     -19.02    1.73    1.77    0.00000   -84.76  LINEAR    6.01289E-02    58.15    6.56114E-01  -121.85
  -65.00   345.00     -17.18    1.74    1.80    0.00000   -83.54  LINEAR    7.43726E-02    58.15    6.56768E-01  -121.85
  -60.00   345.00     -15.71    1.75    1.83    0.00000   -82.37  LINEAR    8.80919E-02    58.15    6.57527E-01  -121.85
  -55.00   345.00     -14.50    1.76    1.86    0.00000   -81.26  LINEAR    1.01184E-01    58.14    6.58367E-01  -121.86
  -50.00   345.00     -13.50    1.78    1.90    0.00000   -80.23  LINEAR    1.13548E-01    58.14    6.59263E-01  -121.86
  -45.00   345.00     -12.66    1.79    1.94    0.00000   -79.27  LINEAR    1.25085E-01    58.14    6.60188E-01  -121.86
  -40.00   345.00     -11.95    1.80    1.98    0.00000   -78.40  LINEAR    1.35701E-01    58.14    6.61114E-01  -121.86
  -35.00   345.00     -11.36    1.81    2.02    0.00000   -77.62  LINEAR    1.45306E-01    58.14    6.62013E-01  -121.86
  -30.00   345.00     -10.87    1.82    2.05    0.00000   -76.94  LINEAR    1.53817E-01    58.14    6.62857E-01  -121.86
  -25.00   345.00     -10.46    1.83    2.08    0.00000   -76.35  LINEAR    1.61157E-01    58.14    6.63621E-01  -121.86
  -20.00   345.00     -10.14    1.84    2.11    0.00000   -75.87  LINEAR    1.67259E-01    58.14    6.64281E-01  -121.86
  -15.00   345.00      -9.89    1.85    2.13    0.00000   -75.49  LINEAR    1.72067E-01    58.14    6.64816E-01  -121.86
  -10.00   345.00      -9.72    1.85    2.15    0.00000   -75.22  LINEAR    1.75535E-01    58.14    6.65211E-01  -121.86
   -5.00   345.00      -9.62    1.86    2.16    0.00000   -75.05  LINEAR    1.77629E-01    58.14    6.65453E-01  -121.86
    0.00   345.00      -9.58    1.86    2.16    0.00000   -75.00  LINEAR    1.78329E-01    58.14    6.65534E-01  -121.86
 -180.00   350.00     -13.05    2.03    2.16    0.00000    80.00  LINEAR    1.19646E-01  -121.86    6.78544E-01  -121.86
 -175.00   350.00     -13.08    2.03    2.16    0.00000    80.04  LINEAR    1.19184E-01  -121.86    6.78507E-01  -121.86
 -170.00   350.00     -13.18    2.02    2.15    0.00000    80.15  LINEAR    1.17802E-01  -121.86    6.78396E-01  -121.86
 -165.00   350.00     -13.35    2.02    2.15    0.00000    80.33  LINEAR    1.15513E-01  -121.86    6.78214E-01  -121.86
 -160.00   350.00     -13.60    2.02    2.14    0.00000    80.59  LINEAR    1.12335E-01  -121.86    6.77968E-01  -121.86
 -155.00   350.00     -13.91    2.01    2.12    0.00000    80.92  LINEAR    1.08295E-01  -121.86    6.77665E-01  -121.86
 -150.00   350.00     -14.31    2.01    2.11    0.00000    81.32  LINEAR    1.03428E-01  -121.86    6.77314E-01  -121.86
 -145.00   350.00     -14.80    2.00    2.09    0.00000    81.78  LINEAR    9.77743E-02  -121.86    6.76926E-01  -121.86
 -140.00   350.00     -15.39    2.00    2.08    0.00000    82.31  LINEAR    9.13795E-02  -121.86    6.76513E-01  -121.86
 -135.00   350.00     -16.09    1.99    2.06    0.00000    82.89  LINEAR    8.42958E-02  -121.86    6.76086E-01  -121.86
 -130.00   350.00     -16.92    1.99    2.04    0.00000    83.53  LINEAR    7.65799E-02  -121.86    6.75660E-01  -121.86
 -125.00   350.00     -17.92    1.98    2.03    0.00000    84.22  LINEAR    6.82925E-02  -121.86    6.75247E-01  -121.86
 -120.00   350.00     -19.12    1.98    2.01    0.00000    84.96  LINEAR    5.94980E-02  -121.86    6.74860E-01  -121.86
 -115.00   350.00     -20.58    1.97    2.00    0.00000    85.74  LINEAR    5.02638E-02  -121.86    6.74510E-01  -121.86
 -110.00   350.00     -22.42    1.97    1.99    0.00000    86.55  LINEAR    4.06597E-02  -121.86    6.74208E-01  -121.86
 -105.00   350.00     -24.85    1.97    1.98    0.00000    87.39  LINEAR    3.07575E-02  -121.86    6.73964E-01  -121.86
 -100.00   350.00     -28.32    1.96    1.97    0.00000    88.25  LINEAR    2.06305E-02  -121.86    6.73783E-01  -121.86
  -95.00   350.00     -34.30    1.96    1.96    0.00000    89.12  LINEAR    1.03529E-02  -121.86    6.73673E-01  -121.86
  -90.00   350.00    -999.99    1.96    1.96    0.00000    90.00  LINEAR    6.06184E-13  -121.86    6.73636E-01  -121.86
  -85.00   350.00     -34.30    1.96    1.96    0.00000   -89.12  LINEAR    1.03529E-02    58.14    6.73673E-01  -121.86
  -80.00   350.00     -28.32    1.96    1.97    0.00000   -88.25  LINEAR    2.06305E-02    58.14    6.73783E-01  -121.86
  -75.00   350.00     -24.85    1.97    1.98    0.00000   -87.39  LINEAR    3.07575E-02    58.14    6.73964E-01  -121.86
  -70.00   350.00     -22.42    1.97    1.99    0.00000   -86.55  LINEAR    4.06597E-02    58.14    6.74208E-01  -121.86
  -65.00   350.00     -20.58    1.97    2.00    0.00000   -85.74  LINEAR    5.02638E-02    58.14    6.74510E-01  -121.86
  -60.00   350.00     -19.12    1.98    2.01    0.00000   -84.96  LINEAR    5.94980E-02    58.14    6.74860E-01  -121.86
  -55.00   350.00     -17.92    1.98    2.03    0.00000   -84.22  LINEAR    6.82925E-02    58.14    6.75247E-01  -121.86
  -50.00   350.00     -16.92    1.99    2.04    0.00000   -83.53  LINEAR    7.65799E-02    58.14    6.75660E-01  -121.86
  -45.00   350.00     -16.09    1.99    2.06    0.00000   -82.89  LINEAR    8.42958E-02    58.14    6.76086E-01  -121.86
  -40.00   350.00     -15.39    2.00    2.08    0.00000   -82.31  LINEAR    9.13795E-02    58.14    6.76513E-01  -121.86
  -35.00   350.00     -14.80    2.00    2.09    0.00000   -81.78  LINEAR    9.77743E-02    58.14    6.76926E-01  -121.86
  -30.00   350.00     -14.31    2.01    2.11    0.00000   -81.32  LINEAR    1.03428E-01    58.14    6.77314E-01  -121.86
  -25.00   350.00     -13.91    2.01    2.12    0.00000   -80.92  LINEAR    1.08295E-01    58.14    6.77665E-01  -121.86
  -20.00   350.00     -13.60    2.02    2.14    0.00000   -80.59  LINEAR    1.12335E-01    58.14    6.77968E-01  -121.86
  -15.00   350.00     -13.35    2.02    2.15    0.00000   -80.33  LINEAR    1.15513E-01    58.14    6.78214E-01  -121.86
  -10.00   350.00     -13.18    2.02    2.15    0.00000   -80.15  LINEAR    1.17802E-01    58.14    6.78396E-01  -121.86
   -5.00   350.00     -13.08    2.03    2.16    0.00000   -80.04  LINEAR    1.19184E-01    58.14    6.78507E-01  -121.86
    0.00   350.00     -13.05    2.03    2.16    0.00000   -80.00  LINEAR    1.19646E-01    58.14    6.78544E-01  -121.86
 -180.00   355.00     -19.04    2.13    2.16    0.00000    85.00  LINEAR    6.00513E-02  -121.86    6.86390E-01  -121.86
 -175.00   355.00     -19.07    2.13    2.16    0.00000    85.02  LINEAR    5.98220E-02  -121.86    6.86380E-01  -121.86
 -170.00   355.00     -19.17    2.12    2.16    0.00000    85.08  LINEAR    5.91357E-02  -121.86    6.86352E-01  -121.86
 -165.00   355.00     -19.34    2.12    2.16    0.00000    85.17  LINEAR    5.79980E-02  -121.86    6.86306E-01  -121.86
 -160.00   355.00     -19.58    2.12    2.15    0.00000    85.30  LINEAR    5.64177E-02  -121.86    6.86243E-01  -121.86
 -155.00   355.00     -19.89    2.12    2.15    0.00000    85.47  LINEAR    5.44072E-02  -121.86    6.86166E-01  -121.86
 -150.00   355.00     -20.29    2.12    2.15    0.00000    85.67  LINEAR    5.19822E-02  -121.86    6.86076E-01  -121.86
 -145.00   355.00     -20.77    2.12    2.14    0.00000    85.90  LINEAR    4.91616E-02  -121.86    6.85977E-01  -121.86
 -140.00   355.00     -21.36    2.12    2.14    0.00000    86.17  LINEAR    4.59673E-02  -121.86    6.85872E-01  -121.86
 -135.00   355.00     -22.05    2.12    2.13    0.00000    86.46  LINEAR    4.24239E-02  -121.86    6.85763E-01  -121.86
 -130.00   355.00     -22.88    2.12    2.13    0.00000    86.78  LINEAR    3.85589E-02  -121.86    6.85654E-01  -121.86
 -125.00   355.00     -23.87    2.11    2.13    0.00000    87.13  LINEAR    3.44018E-02  -121.86    6.85549E-01  -121.86
 -120.00   355.00     -25.07    2.11    2.12    0.00000    87.50  LINEAR    2.99845E-02  -121.86    6.85450E-01  -121.86
 -115.00   355.00     -26.53    2.11    2.12    0.00000    87.88  LINEAR    2.53407E-02  -121.86    6.85360E-01  -121.86
 -110.00   355.00     -28.37    2.11    2.12    0.00000    88.29  LINEAR    2.05056E-02  -121.86    6.85283E-01  -121.86
 -105.00   355.00     -30.79    2.11    2.11    0.00000    88.70  LINEAR    1.55159E-02  -121.86    6.85220E-01  -121.86
 -100.00   355.00     -34.26    2.11    2.11    0.00000    89.13  LINEAR    1.04093E-02  -121.86    6.85174E-01  -121.86
  -95.00   355.00     -40.25    2.11    2.11    0.00000    89.56  LINEAR    5.22433E-03  -121.86    6.85146E-01  -121.86
  -90.00   355.00    -999.99    2.11    2.11    0.00000    90.00  LINEAR    3.05907E-13  -121.86    6.85136E-01  -121.86
  -85.00   355.00     -40.25    2.11    2.11    0.00000   -89.56  LINEAR    5.22433E-03    58.14    6.85146E-01  -121.86
  -80.00   355.00     -34.26    2.11    2.11    0.00000   -89.13  LINEAR    1.04093E-02    58.14    6.85174E-01  -121.86
  -75.00   355.00     -30.79    2.11    2.11    0.00000   -88.70  LINEAR    1.55159E-02    58.14    6.85220E-01  -121.86
  -70.00   355.00     -28.37    2.11    2.12    0.00000   -88.29  LINEAR    2.05056E-02    58.14    6.85283E-01  -121.86
  -65.00   355.00     -26.53    2.11    2.12    0.00000   -87.88  LINEAR    2.53407E-02    58.14    6.85360E-01  -121.86
  -60.00   355.00     -25.07    2.11    2.12    0.00000   -87.50  LINEAR    2.99845E-02    58.14    6.85450E-01  -121.86
  -55.00   355.00     -23.87    2.11    2.13    0.00000   -87.13  LINEAR    3.44018E-02    58.14    6.85549E-01  -121.86
  -50.00   355.00     -22.88    2.12    2.13    0.00000   -86.78  LINEAR    3.85589E-02    58.14    6.85654E-01  -121.86
  -45.00   355.00     -22.05    2.12    2.13    0.00000   -86.46  LINEAR    4.24239E-02    58.14    6.85763E-01  -121.86
  -40.00   355.00     -21.36    2.12    2.14    0.00000   -86.17  LINEAR    4.59673E-02    58.14    6.85872E-01  -121.86
  -35.00   355.00     -20.77    2.12    2.14    0.00000   -85.90  LINEAR    4.91616E-02    58.14    6.85977E-01  -121.86
  -30.00   355.00     -20.29    2.12    2.15    0.00000   -85.67  LINEAR    5.19822E-02    58.14    6.86076E-01  -121.86
  -25.00   355.00     -19.89    2.12    2.15    0.00000   -85.47  LINEAR    5.44072E-02    58.14    6.86166E-01  -121.86
  -20.00   355.00     -19.58    2.12    2.15    0.00000   -85.30  LINEAR    5.64177E-02    58.14    6.86243E-01  -121.86
  -15.00   355.00     -19.34    2.12    2.16    0.00000   -85.17  LINEAR    5.79980E-02    58.14    6.86306E-01  -121.86
  -10.00   355.00     -19.17    2.12    2.16    0.00000   -85.08  LINEAR    5.91357E-02    58.14    6.86352E-01  -121.86
   -5.00   355.00     -19.07    2.13    2.16    0.00000   -85.02  LINEAR    5.98220E-02    58.14    6.86380E-01  -121.86
    0.00   355.00     -19.04    2.13    2.16    0.00000   -85.00  LINEAR    6.00513E-02    58.14    6.86390E-01  -121.86
 -180.00   360.00    -999.99    2.16    2.16    0.00000   -90.00  LINEAR    1.40652E-11    58.14    6.89012E-01  -121.86
 -175.00   360.00    -999.99    2.16    2.16    0.00000   -90.00  LINEAR    1.40117E-11    58.14    6.89012E-01  -121.86
 -170.00   360.00    -999.99    2.16    2.16    0.00000   -90.00  LINEAR    1.38516E-11    58.14    6.89012E-01  -121.86
 -165.00   360.00    -999.99    2.16    2.16    0.00000   -90.00  LINEAR    1.35860E-11    58.14    6.89012E-01  -121.86
 -160.00   360.00    -999.99    2.16    2.16    0.00000   -90.00  LINEAR    1.32170E-11    58.14    6.89012E-01  -121.86
 -155.00   360.00    -999.99    2.16    2.16    0.00000   -90.00  LINEAR    1.27474E-11    58.14    6.89012E-01  -121.86
 -150.00   360.00    -999.99    2.16    2.16    0.00000   -90.00  LINEAR    1.21809E-11    58.14    6.89012E-01  -121.86
 -145.00   360.00    -999.99    2.16    2.16    0.00000   -90.00  LINEAR    1.15216E-11    58.14    6.89012E-01  -121.86
 -140.00   360.00    -999.99    2.16    2.16    0.00000   -90.00  LINEAR    1.07746E-11    58.14    6.89012E-01  -121.86
 -135.00   360.00    -999.99    2.16    2.16    0.00000   -90.00  LINEAR    9.94563E-12    58.14    6.89012E-01  -121.86
 -130.00   360.00    -999.99    2.16    2.16    0.00000   -90.00  LINEAR    9.04096E-12    58.14    6.89012E-01  -121.86
 -125.00   360.00    -999.99    2.16    2.16    0.00000   -90.00  LINEAR    8.06749E-12    58.14    6.89012E-01  -121.86
 -120.00   360.00    -999.99    2.16    2.16    0.00000   -90.00  LINEAR    7.03262E-12    58.14    6.89012E-01  -121.86
 -115.00   360.00    -999.99    2.16    2.16    0.00000   -90.00  LINEAR    5.94423E-12    58.14    6.89012E-01  -121.86
 -110.00   360.00    -999.99    2.16    2.16    0.00000   -90.00  LINEAR    4.81059E-12    58.14    6.89012E-01  -121.86
 -105.00   360.00    -999.99    2.16    2.16    0.00000   -90.00  LINEAR    3.64035E-12    58.14    6.89012E-01  -121.86
 -100.00   360.00    -999.99    2.16    2.16    0.00000   -90.00  LINEAR    2.44240E-12    58.14    6.89012E-01  -121.86
  -95.00   360.00    -999.99    2.16    2.16    0.00000   -90.00  LINEAR    1.22587E-12    58.14    6.89012E-01  -121.86
  -90.00   360.00    -999.99    2.16    2.16    0.00000   -90.00  LINEAR    7.17807E-23    58.14    6.89012E-01  -121.86
  -85.00   360.00    -999.99    2.16    2.16    0.00000    90.00  LINEAR    1.22587E-12  -121.86    6.89012E-01  -121.86
  -80.00   360.00    -999.99    2.16    2.16    0.00000    90.00  LINEAR    2.44240E-12  -121.86    6.89012E-01  -121.86
  -75.00   360.00    -999.99    2.16    2.16    0.00000    90.00  LINEAR    3.64035E-12  -121.86    6.89012E-01  -121.86
  -70.00   360.00    -999.99    2.16    2.16    0.00000    90.00  LINEAR    4.81059E-12  -121.86    6.89012E-01  -121.86
  -65.00   360.00    -999.99    2.16    2.16    0.00000    90.00  LINEAR    5.94423E-12  -121.86    6.89012E-01  -121.86
  -60.00   360.00    -999.99    2.16    2.16    0.00000    90.00  LINEAR    7.03262E-12  -121.86    6.89012E-01  -121.86
  -55.00   360.00    -999.99    2.16    2.16    0.00000    90.00  LINEAR    8.06749E-12  -121.86    6.89012E-01  -121.86
  -50.00   360.00    -999.99    2.16    2.16    0.00000    90.00  LINEAR    9.04096E-12  -121.86    6.89012E-01  -121.86
  -45.00   360.00    -999.99    2.16    2.16    0.00000    90.00  LINEAR    9.94563E-12  -121.86    6.89012E-01  -121.86
  -40.00   360.00    -999.99    2.16    2.16    0.00000    90.00  LINEAR    1.07746E-11  -121.86    6.89012E-01  -121.86
  -35.00   360.00    -999.99    2.16    2.16    0.00000    90.00  LINEAR    1.15216E-11  -121.86    6.89012E-01  -121.86
  -30.00   360.00    -999.99    2.16    2.16    0.00000    90.00  LINEAR    1.21809E-11  -121.86    6.89012E-01  -121.86
  -25.00   360.00    -999.99    2.16    2.16    0.00000    90.00  LINEAR    1.27474E-11  -121.86    6.89012E-01  -121.86
  -20.00   360.00    -999.99    2.16    2.16    0.00000    90.00  LINEAR    1.32170E-11  -121.86    6.89012E-01  -121.86
  -15.00   360.00    -999.99    2.16    2.16    0.00000    90.00  LINEAR    1.35860E-11  -121.86    6.89012E-01  -121.86
  -10.00   360.00    -999.99    2.16    2.16    0.00000    90.00  LINEAR    1.38516E-11  -121.86    6.89012E-01  -121.86
   -5.00   360.00    -999.99    2.16    2.16    0.00000    90.00  LINEAR    1.40117E-11  -121.86    6.89012E-01  -121.86
    0.00   360.00    -999.99    2.16    2.16    0.00000    90.00  LINEAR    1.40652E-11  -121.86    6.89012E-01  -121.86


   AVERAGE POWER GAIN= 9.99420E-01       SOLID ANGLE USED IN AVERAGING=( 4.0000)*PI STERADIANS.








 ***** DATA CARD NO.  6   EN   0    37    73  1003 -1.80000E+02  0.00000E+00  5.00000E+00  5.00000E+00  0.00000E+00  0.00000E+00

 RUN TIME =     0.156
