1



                                 *********************************************

                                    NUMERICAL ELECTROMAGNETICS CODE (NEC-2D)

                                 *********************************************




                                     - - - - COMMENTS - - - -


                          A horizontal dipole array, 2 element                                       
                          		                                                                         
                                                                                                     
                                                                                                     
                                                                                                     
                                                                                                     
                                                                                                     




                                 - - - STRUCTURE SPECIFICATION - - -

                                     COORDINATES MUST BE INPUT IN
                                     METERS OR BE SCALED TO METERS
                                     BEFORE STRUCTURE INPUT IS ENDED


  WIRE                                                                               NO. OF    FIRST  LAST     TAG
  NO.        X1         Y1         Z1          X2         Y2         Z2      RADIUS   SEG.     SEG.   SEG.     NO.
     1    9.99335   -4.99667    0.00000     9.99335    4.99667    0.00000    0.00005     21        1    21       2
     2    0.00000   -4.99667    0.00000     0.00000    4.99667    0.00000    0.00005     21       22    42       1

   TOTAL SEGMENTS USED=   42     NO. SEG. IN A SYMMETRIC CELL=   42     SYMMETRY FLAG=  0


         - MULTIPLE WIRE JUNCTIONS -
 JUNCTION    SEGMENTS  (- FOR END 1, + FOR END 2)
  NONE




                                 - - - - SEGMENTATION DATA - - - -

                                        COORDINATES IN METERS

                         I+ AND I- INDICATE THE SEGMENTS BEFORE AND AFTER I


  SEG.   COORDINATES OF SEG. CENTER     SEG.     ORIENTATION ANGLES    WIRE    CONNECTION DATA   TAG
  NO.       X         Y         Z       LENGTH     ALPHA     BETA      RADIUS    I-   I    I+    NO.
     1   9.99335  -4.75874   0.00000   0.47587    0.00000  90.00000   0.00005     0    1    2      2
     2   9.99335  -4.28286   0.00000   0.47587    0.00000  90.00000   0.00005     1    2    3      2
     3   9.99335  -3.80699   0.00000   0.47587    0.00000  90.00000   0.00005     2    3    4      2
     4   9.99335  -3.33112   0.00000   0.47587    0.00000  90.00000   0.00005     3    4    5      2
     5   9.99335  -2.85524   0.00000   0.47587    0.00000  90.00000   0.00005     4    5    6      2
     6   9.99335  -2.37937   0.00000   0.47587    0.00000  90.00000   0.00005     5    6    7      2
     7   9.99335  -1.90350   0.00000   0.47587    0.00000  90.00000   0.00005     6    7    8      2
     8   9.99335  -1.42762   0.00000   0.47587    0.00000  90.00000   0.00005     7    8    9      2
     9   9.99335  -0.95175   0.00000   0.47587    0.00000  90.00000   0.00005     8    9   10      2
    10   9.99335  -0.47587   0.00000   0.47587    0.00000  90.00000   0.00005     9   10   11      2
    11   9.99335   0.00000   0.00000   0.47587    0.00000  90.00000   0.00005    10   11   12      2
    12   9.99335   0.47587   0.00000   0.47587    0.00000  90.00000   0.00005    11   12   13      2
    13   9.99335   0.95175   0.00000   0.47587    0.00000  90.00000   0.00005    12   13   14      2
    14   9.99335   1.42762   0.00000   0.47587    0.00000  90.00000   0.00005    13   14   15      2
    15   9.99335   1.90350   0.00000   0.47587    0.00000  90.00000   0.00005    14   15   16      2
    16   9.99335   2.37937   0.00000   0.47587    0.00000  90.00000   0.00005    15   16   17      2
    17   9.99335   2.85524   0.00000   0.47587    0.00000  90.00000   0.00005    16   17   18      2
    18   9.99335   3.33112   0.00000   0.47587    0.00000  90.00000   0.00005    17   18   19      2
    19   9.99335   3.80699   0.00000   0.47587    0.00000  90.00000   0.00005    18   19   20      2
    20   9.99335   4.28286   0.00000   0.47587    0.00000  90.00000   0.00005    19   20   21      2
    21   9.99335   4.75874   0.00000   0.47587    0.00000  90.00000   0.00005    20   21    0      2
    22   0.00000  -4.75874   0.00000   0.47587    0.00000  90.00000   0.00005     0   22   23      1
    23   0.00000  -4.28286   0.00000   0.47587    0.00000  90.00000   0.00005    22   23   24      1
    24   0.00000  -3.80699   0.00000   0.47587    0.00000  90.00000   0.00005    23   24   25      1
    25   0.00000  -3.33112   0.00000   0.47587    0.00000  90.00000   0.00005    24   25   26      1
    26   0.00000  -2.85524   0.00000   0.47587    0.00000  90.00000   0.00005    25   26   27      1
    27   0.00000  -2.37937   0.00000   0.47587    0.00000  90.00000   0.00005    26   27   28      1
    28   0.00000  -1.90350   0.00000   0.47587    0.00000  90.00000   0.00005    27   28   29      1
    29   0.00000  -1.42762   0.00000   0.47587    0.00000  90.00000   0.00005    28   29   30      1
    30   0.00000  -0.95175   0.00000   0.47587    0.00000  90.00000   0.00005    29   30   31      1
    31   0.00000  -0.47587   0.00000   0.47587    0.00000  90.00000   0.00005    30   31   32      1
    32   0.00000   0.00000   0.00000   0.47587    0.00000  90.00000   0.00005    31   32   33      1
    33   0.00000   0.47587   0.00000   0.47587    0.00000  90.00000   0.00005    32   33   34      1
    34   0.00000   0.95175   0.00000   0.47587    0.00000  90.00000   0.00005    33   34   35      1
    35   0.00000   1.42762   0.00000   0.47587    0.00000  90.00000   0.00005    34   35   36      1
    36   0.00000   1.90350   0.00000   0.47587    0.00000  90.00000   0.00005    35   36   37      1
    37   0.00000   2.37937   0.00000   0.47587    0.00000  90.00000   0.00005    36   37   38      1
    38   0.00000   2.85524   0.00000   0.47587    0.00000  90.00000   0.00005    37   38   39      1
    39   0.00000   3.33112   0.00000   0.47587    0.00000  90.00000   0.00005    38   39   40      1
    40   0.00000   3.80699   0.00000   0.47587    0.00000  90.00000   0.00005    39   40   41      1
    41   0.00000   4.28286   0.00000   0.47587    0.00000  90.00000   0.00005    40   41   42      1
    42   0.00000   4.75874   0.00000   0.47587    0.00000  90.00000   0.00005    41   42    0      1






 ***** DATA CARD NO.  1   GN  -1     0     0     0  0.00000E+00  0.00000E+00  0.00000E+00  0.00000E+00  0.00000E+00  0.00000E+00
 ***** DATA CARD NO.  2   EK   0     0     0     0  0.00000E+00  0.00000E+00  0.00000E+00  0.00000E+00  0.00000E+00  0.00000E+00
 ***** DATA CARD NO.  3   EX   0     2    11     0  1.00000E+00  0.00000E+00  0.00000E+00  0.00000E+00  0.00000E+00  0.00000E+00
 ***** DATA CARD NO.  4   EX   0     1    11     0  1.00000E+00  0.00000E+00  0.00000E+00  0.00000E+00  0.00000E+00  0.00000E+00
 ***** DATA CARD NO.  5   NT   1    11     2    11  0.00000E+00  0.00000E+00  0.00000E+00  0.00000E+00  0.00000E+00  0.00000E+00
 ***** DATA CARD NO.  6   FR   0     0     0     0  1.50100E+01  0.00000E+00  0.00000E+00  0.00000E+00  0.00000E+00  0.00000E+00
 ***** DATA CARD NO.  7   RP   0    37    73  1003 -1.80000E+02  0.00000E+00  5.00000E+00  5.00000E+00  0.00000E+00  0.00000E+00




                                 - - - - - - FREQUENCY - - - - - -

                                    FREQUENCY= 1.5010E+01 MHZ
                                    WAVELENGTH= 1.9973E+01 METERS




                    APPROXIMATE INTEGRATION EMPLOYED FOR SEGMENTS MORE THAN   1.000 WAVELENGTHS APART

                    THE EXTENDED THIN WIRE KERNEL WILL BE USED



                               - - - STRUCTURE IMPEDANCE LOADING - - -

                                   THIS STRUCTURE IS NOT LOADED



                                  - - - ANTENNA ENVIRONMENT - - -

                                            FREE SPACE



                                - - - MATRIX TIMING - - -

                        FILL=    0.031 SEC.,  FACTOR=    0.000 SEC.



                                            - - - NETWORK DATA - - -

      - FROM -    - TO -                          -  -  ADMITTANCE MATRIX ELEMENTS (MHOS)  -  -
      TAG  SEG.   TAG  SEG.             (ONE,ONE)                   (ONE,TWO)                   (TWO,TWO)
      NO.   NO.   NO.   NO.        REAL          IMAG.         REAL          IMAG.         REAL          IMAG.
        1    32     2    11     0.0000E+00    0.0000E+00    0.0000E+00    0.0000E+00    0.0000E+00    0.0000E+00           



                           - - - STRUCTURE EXCITATION DATA AT NETWORK CONNECTION POINTS - - -

   TAG   SEG.    VOLTAGE (VOLTS)         CURRENT (AMPS)         IMPEDANCE (OHMS)        ADMITTANCE (MHOS)      POWER
   NO.   NO.    REAL        IMAG.       REAL        IMAG.       REAL        IMAG.       REAL        IMAG.     (WATTS)
     1    32 1.00000E+00 0.00000E+00 1.51261E-02-3.56551E-03 6.26308E+01 1.47632E+01 1.51261E-02-3.56551E-03 7.56306E-03
     2    11 1.00000E+00 0.00000E+00 1.51261E-02-3.56551E-03 6.26308E+01 1.47632E+01 1.51261E-02-3.56551E-03 7.56306E-03



                                          - - - ANTENNA INPUT PARAMETERS - - -

   TAG   SEG.    VOLTAGE (VOLTS)         CURRENT (AMPS)         IMPEDANCE (OHMS)        ADMITTANCE (MHOS)      POWER
   NO.   NO.    REAL        IMAG.       REAL        IMAG.       REAL        IMAG.       REAL        IMAG.     (WATTS)
     2    11 1.00000E+00 0.00000E+00 1.51261E-02-3.56551E-03 6.26308E+01 1.47632E+01 1.51261E-02-3.56551E-03 7.56306E-03
     1    32 1.00000E+00 0.00000E+00 1.51261E-02-3.56551E-03 6.26308E+01 1.47632E+01 1.51261E-02-3.56551E-03 7.56306E-03



                             - - - CURRENTS AND LOCATION - - -

                                 DISTANCES IN WAVELENGTHS


  SEG.  TAG    COORD. OF SEG. CENTER     SEG.            - - - CURRENT (AMPS) - - -
  NO.   NO.     X        Y        Z      LENGTH     REAL        IMAG.       MAG.        PHASE
     1    2   0.5003  -0.2383   0.0000  0.02383   1.2633E-03 -3.5653E-04  1.3126E-03  -15.760
     2    2   0.5003  -0.2144   0.0000  0.02383   3.5914E-03 -1.0023E-03  3.7286E-03  -15.594
     3    2   0.5003  -0.1906   0.0000  0.02383   5.7608E-03 -1.5887E-03  5.9759E-03  -15.417
     4    2   0.5003  -0.1668   0.0000  0.02383   7.7755E-03 -2.1167E-03  8.0585E-03  -15.228
     5    2   0.5003  -0.1430   0.0000  0.02383   9.6063E-03 -2.5784E-03  9.9463E-03  -15.025
     6    2   0.5003  -0.1191   0.0000  0.02383   1.1221E-02 -2.9652E-03  1.1606E-02  -14.803
     7    2   0.5003  -0.0953   0.0000  0.02383   1.2588E-02 -3.2691E-03  1.3006E-02  -14.558
     8    2   0.5003  -0.0715   0.0000  0.02383   1.3681E-02 -3.4832E-03  1.4118E-02  -14.284
     9    2   0.5003  -0.0477   0.0000  0.02383   1.4478E-02 -3.6019E-03  1.4920E-02  -13.970
    10    2   0.5003  -0.0238   0.0000  0.02383   1.4963E-02 -3.6199E-03  1.5395E-02  -13.599
    11    2   0.5003   0.0000   0.0000  0.02383   1.5126E-02 -3.5655E-03  1.5541E-02  -13.264
    12    2   0.5003   0.0238   0.0000  0.02383   1.4963E-02 -3.6199E-03  1.5395E-02  -13.599
    13    2   0.5003   0.0477   0.0000  0.02383   1.4478E-02 -3.6019E-03  1.4920E-02  -13.970
    14    2   0.5003   0.0715   0.0000  0.02383   1.3681E-02 -3.4832E-03  1.4118E-02  -14.284
    15    2   0.5003   0.0953   0.0000  0.02383   1.2588E-02 -3.2691E-03  1.3006E-02  -14.558
    16    2   0.5003   0.1191   0.0000  0.02383   1.1221E-02 -2.9652E-03  1.1606E-02  -14.803
    17    2   0.5003   0.1430   0.0000  0.02383   9.6063E-03 -2.5784E-03  9.9463E-03  -15.025
    18    2   0.5003   0.1668   0.0000  0.02383   7.7755E-03 -2.1167E-03  8.0585E-03  -15.228
    19    2   0.5003   0.1906   0.0000  0.02383   5.7608E-03 -1.5887E-03  5.9759E-03  -15.417
    20    2   0.5003   0.2144   0.0000  0.02383   3.5914E-03 -1.0023E-03  3.7286E-03  -15.594
    21    2   0.5003   0.2383   0.0000  0.02383   1.2633E-03 -3.5653E-04  1.3126E-03  -15.760
    22    1   0.0000  -0.2383   0.0000  0.02383   1.2633E-03 -3.5653E-04  1.3126E-03  -15.760
    23    1   0.0000  -0.2144   0.0000  0.02383   3.5914E-03 -1.0023E-03  3.7286E-03  -15.594
    24    1   0.0000  -0.1906   0.0000  0.02383   5.7608E-03 -1.5887E-03  5.9759E-03  -15.417
    25    1   0.0000  -0.1668   0.0000  0.02383   7.7755E-03 -2.1167E-03  8.0585E-03  -15.228
    26    1   0.0000  -0.1430   0.0000  0.02383   9.6063E-03 -2.5784E-03  9.9463E-03  -15.025
    27    1   0.0000  -0.1191   0.0000  0.02383   1.1221E-02 -2.9652E-03  1.1606E-02  -14.803
    28    1   0.0000  -0.0953   0.0000  0.02383   1.2588E-02 -3.2691E-03  1.3006E-02  -14.558
    29    1   0.0000  -0.0715   0.0000  0.02383   1.3681E-02 -3.4832E-03  1.4118E-02  -14.284
    30    1   0.0000  -0.0477   0.0000  0.02383   1.4478E-02 -3.6019E-03  1.4920E-02  -13.970
    31    1   0.0000  -0.0238   0.0000  0.02383   1.4963E-02 -3.6199E-03  1.5395E-02  -13.599
    32    1   0.0000   0.0000   0.0000  0.02383   1.5126E-02 -3.5655E-03  1.5541E-02  -13.264
    33    1   0.0000   0.0238   0.0000  0.02383   1.4963E-02 -3.6199E-03  1.5395E-02  -13.599
    34    1   0.0000   0.0477   0.0000  0.02383   1.4478E-02 -3.6019E-03  1.4920E-02  -13.970
    35    1   0.0000   0.0715   0.0000  0.02383   1.3681E-02 -3.4832E-03  1.4118E-02  -14.284
    36    1   0.0000   0.0953   0.0000  0.02383   1.2588E-02 -3.2691E-03  1.3006E-02  -14.558
    37    1   0.0000   0.1191   0.0000  0.02383   1.1221E-02 -2.9652E-03  1.1606E-02  -14.803
    38    1   0.0000   0.1430   0.0000  0.02383   9.6063E-03 -2.5784E-03  9.9463E-03  -15.025
    39    1   0.0000   0.1668   0.0000  0.02383   7.7755E-03 -2.1167E-03  8.0585E-03  -15.228
    40    1   0.0000   0.1906   0.0000  0.02383   5.7608E-03 -1.5887E-03  5.9759E-03  -15.417
    41    1   0.0000   0.2144   0.0000  0.02383   3.5914E-03 -1.0023E-03  3.7286E-03  -15.594
    42    1   0.0000   0.2383   0.0000  0.02383   1.2633E-03 -3.5653E-04  1.3126E-03  -15.760



                                        - - - POWER BUDGET - - -

                                           INPUT POWER   = 1.5126E-02 WATTS
                                           RADIATED POWER= 1.5126E-02 WATTS
                                           STRUCTURE LOSS= 0.0000E+00 WATTS
                                           NETWORK LOSS  =-8.6736E-19 WATTS
                                           EFFICIENCY    = 100.00 PERCENT



                                                - - - RADIATION PATTERNS - - -

  - - ANGLES - -           - POWER GAINS -       - - - POLARIZATION - - -    - - - E(THETA) - - -    - - - E(PHI) - - -
  THETA     PHI        VERT.   HOR.    TOTAL      AXIAL     TILT   SENSE     MAGNITUDE    PHASE      MAGNITUDE    PHASE 
 DEGREES  DEGREES       DB      DB      DB        RATIO     DEG.              VOLTS/M    DEGREES      VOLTS/M    DEGREES
 -180.00     0.00    -999.99    5.99    5.99    0.00000   -90.00  LINEAR    0.00000E+00     0.00    1.89777E+00  -104.42
 -175.00     0.00    -999.99    5.91    5.91    0.00000   -90.00  LINEAR    0.00000E+00     0.00    1.87999E+00  -112.27
 -170.00     0.00    -999.99    5.66    5.66    0.00000   -90.00  LINEAR    0.00000E+00     0.00    1.82752E+00  -120.06
 -165.00     0.00    -999.99    5.25    5.25    0.00000   -90.00  LINEAR    0.00000E+00     0.00    1.74288E+00  -127.73
 -160.00     0.00    -999.99    4.67    4.67    0.00000   -90.00  LINEAR    0.00000E+00     0.00    1.63007E+00  -135.23
 -155.00     0.00    -999.99    3.91    3.91    0.00000   -90.00  LINEAR    0.00000E+00     0.00    1.49422E+00  -142.49
 -150.00     0.00    -999.99    2.97    2.97    0.00000   -90.00  LINEAR    0.00000E+00     0.00    1.34122E+00  -149.45
 -145.00     0.00    -999.99    1.84    1.84    0.00000   -90.00  LINEAR    0.00000E+00     0.00    1.17733E+00  -156.08
 -140.00     0.00    -999.99    0.50    0.50    0.00000   -90.00  LINEAR    0.00000E+00     0.00    1.00877E+00  -162.31
 -135.00     0.00    -999.99   -1.08   -1.08    0.00000   -90.00  LINEAR    0.00000E+00     0.00    8.41379E-01  -168.11
 -130.00     0.00    -999.99   -2.92   -2.92    0.00000   -90.00  LINEAR    0.00000E+00     0.00    6.80408E-01  -173.41
 -125.00     0.00    -999.99   -5.08   -5.08    0.00000   -90.00  LINEAR    0.00000E+00     0.00    5.30322E-01  -178.20
 -120.00     0.00    -999.99   -7.65   -7.65    0.00000   -90.00  LINEAR    0.00000E+00     0.00    3.94751E-01   177.58
 -115.00     0.00    -999.99  -10.74  -10.74    0.00000   -90.00  LINEAR    0.00000E+00     0.00    2.76505E-01   173.95
 -110.00     0.00    -999.99  -14.58  -14.58    0.00000   -90.00  LINEAR    0.00000E+00     0.00    1.77645E-01   170.95
 -105.00     0.00    -999.99  -19.61  -19.61    0.00000   -90.00  LINEAR    0.00000E+00     0.00    9.96053E-02   168.58
 -100.00     0.00    -999.99  -26.84  -26.84    0.00000   -90.00  LINEAR    0.00000E+00     0.00    4.33224E-02   166.88
  -95.00     0.00    -999.99  -40.15  -40.15    0.00000   -90.00  LINEAR    0.00000E+00     0.00    9.35877E-03   165.86
  -90.00     0.00    -999.99  -53.59  -53.59    0.00000    90.00  LINEAR    0.00000E+00     0.00    1.99244E-03   -14.48
  -85.00     0.00    -999.99  -40.15  -40.15    0.00000   -90.00  LINEAR    0.00000E+00     0.00    9.35877E-03   165.86
  -80.00     0.00    -999.99  -26.84  -26.84    0.00000   -90.00  LINEAR    0.00000E+00     0.00    4.33224E-02   166.88
  -75.00     0.00    -999.99  -19.61  -19.61    0.00000   -90.00  LINEAR    0.00000E+00     0.00    9.96053E-02   168.58
  -70.00     0.00    -999.99  -14.58  -14.58    0.00000   -90.00  LINEAR    0.00000E+00     0.00    1.77645E-01   170.95
  -65.00     0.00    -999.99  -10.74  -10.74    0.00000   -90.00  LINEAR    0.00000E+00     0.00    2.76505E-01   173.95
  -60.00     0.00    -999.99   -7.65   -7.65    0.00000   -90.00  LINEAR    0.00000E+00     0.00    3.94751E-01   177.58
  -55.00     0.00    -999.99   -5.08   -5.08    0.00000   -90.00  LINEAR    0.00000E+00     0.00    5.30322E-01  -178.20
  -50.00     0.00    -999.99   -2.92   -2.92    0.00000   -90.00  LINEAR    0.00000E+00     0.00    6.80408E-01  -173.41
  -45.00     0.00    -999.99   -1.08   -1.08    0.00000   -90.00  LINEAR    0.00000E+00     0.00    8.41379E-01  -168.11
  -40.00     0.00    -999.99    0.50    0.50    0.00000   -90.00  LINEAR    0.00000E+00     0.00    1.00877E+00  -162.31
  -35.00     0.00    -999.99    1.84    1.84    0.00000   -90.00  LINEAR    0.00000E+00     0.00    1.17733E+00  -156.08
  -30.00     0.00    -999.99    2.97    2.97    0.00000   -90.00  LINEAR    0.00000E+00     0.00    1.34122E+00  -149.45
  -25.00     0.00    -999.99    3.91    3.91    0.00000   -90.00  LINEAR    0.00000E+00     0.00    1.49422E+00  -142.49
  -20.00     0.00    -999.99    4.67    4.67    0.00000   -90.00  LINEAR    0.00000E+00     0.00    1.63007E+00  -135.23
  -15.00     0.00    -999.99    5.25    5.25    0.00000   -90.00  LINEAR    0.00000E+00     0.00    1.74288E+00  -127.73
  -10.00     0.00    -999.99    5.66    5.66    0.00000   -90.00  LINEAR    0.00000E+00     0.00    1.82752E+00  -120.06
   -5.00     0.00    -999.99    5.91    5.91    0.00000   -90.00  LINEAR    0.00000E+00     0.00    1.87999E+00  -112.27
    0.00     0.00    -999.99    5.99    5.99    0.00000   -90.00  LINEAR    0.00000E+00     0.00    1.89777E+00  -104.42
 -180.00     5.00     -15.20    5.96    5.99    0.00000   -85.00  LINEAR    1.65402E-01    75.58    1.89055E+00  -104.42
 -175.00     5.00     -15.32    5.87    5.91    0.00000   -85.02  LINEAR    1.63238E-01    67.76    1.87295E+00  -112.24
 -170.00     5.00     -15.66    5.63    5.66    0.00000   -85.08  LINEAR    1.56896E-01    60.00    1.82099E+00  -120.00
 -165.00     5.00     -16.24    5.22    5.25    0.00000   -85.17  LINEAR    1.46806E-01    52.36    1.73719E+00  -127.64
 -160.00     5.00     -17.06    4.64    4.67    0.00000   -85.30  LINEAR    1.33636E-01    44.89    1.62550E+00  -135.11
 -155.00     5.00     -18.12    3.89    3.92    0.00000   -85.47  LINEAR    1.18223E-01    37.66    1.49099E+00  -142.34
 -150.00     5.00     -19.45    2.96    2.99    0.00000   -85.67  LINEAR    1.01491E-01    30.72    1.33951E+00  -149.28
 -145.00     5.00     -21.05    1.84    1.86    0.00000   -85.90  LINEAR    8.43680E-02    24.12    1.17723E+00  -155.88
 -140.00     5.00     -22.96    0.51    0.53    0.00000   -86.17  LINEAR    6.77118E-02    17.91    1.01032E+00  -162.09
 -135.00     5.00     -25.21   -1.04   -1.03    0.00000   -86.46  LINEAR    5.22483E-02    12.14    8.44569E-01  -167.86
 -130.00     5.00     -27.86   -2.86   -2.85    0.00000   -86.78  LINEAR    3.85315E-02     6.85    6.85167E-01  -173.15
 -125.00     5.00     -30.97   -4.98   -4.97    0.00000   -87.13  LINEAR    2.69242E-02     2.08    5.36537E-01  -177.92
 -120.00     5.00     -34.67   -7.49   -7.48    0.00000   -87.50  LINEAR    1.75972E-02    -2.12    4.02274E-01   177.88
 -115.00     5.00     -39.12  -10.47  -10.47    0.00000   -87.88  LINEAR    1.05436E-02    -5.73    2.85162E-01   174.27
 -110.00     5.00     -44.61  -14.13  -14.12    0.00000   -88.29  LINEAR    5.60289E-03    -8.73    1.87244E-01   171.27
 -105.00     5.00     -51.65  -18.75  -18.75    0.00000   -88.70  LINEAR    2.48958E-03   -11.08    1.09946E-01   168.92
 -100.00     5.00     -61.26  -24.90  -24.90    0.00000   -89.13  LINEAR    8.23336E-04   -12.78    5.41945E-02   167.22
  -95.00     5.00     -75.67  -33.32  -33.32    0.00000   -89.56  LINEAR    1.56702E-04   -13.80    2.05507E-02   166.20
  -90.00     5.00    -999.99  -40.20  -40.20    0.00000   -90.00  LINEAR    4.15515E-15   -14.14    9.30623E-03   165.86
  -85.00     5.00     -75.67  -33.32  -33.32    0.00000    89.56  LINEAR    1.56702E-04   166.20    2.05507E-02   166.20
  -80.00     5.00     -61.26  -24.90  -24.90    0.00000    89.13  LINEAR    8.23336E-04   167.22    5.41945E-02   167.22
  -75.00     5.00     -51.65  -18.75  -18.75    0.00000    88.70  LINEAR    2.48958E-03   168.92    1.09946E-01   168.92
  -70.00     5.00     -44.61  -14.13  -14.12    0.00000    88.29  LINEAR    5.60289E-03   171.27    1.87244E-01   171.27
  -65.00     5.00     -39.12  -10.47  -10.47    0.00000    87.88  LINEAR    1.05436E-02   174.27    2.85162E-01   174.27
  -60.00     5.00     -34.67   -7.49   -7.48    0.00000    87.50  LINEAR    1.75972E-02   177.88    4.02274E-01   177.88
  -55.00     5.00     -30.97   -4.98   -4.97    0.00000    87.13  LINEAR    2.69242E-02  -177.92    5.36537E-01  -177.92
  -50.00     5.00     -27.86   -2.86   -2.85    0.00000    86.78  LINEAR    3.85315E-02  -173.15    6.85167E-01  -173.15
  -45.00     5.00     -25.21   -1.04   -1.03    0.00000    86.46  LINEAR    5.22483E-02  -167.86    8.44569E-01  -167.86
  -40.00     5.00     -22.96    0.51    0.53    0.00000    86.17  LINEAR    6.77118E-02  -162.09    1.01032E+00  -162.09
  -35.00     5.00     -21.05    1.84    1.86    0.00000    85.90  LINEAR    8.43680E-02  -155.88    1.17723E+00  -155.88
  -30.00     5.00     -19.45    2.96    2.99    0.00000    85.67  LINEAR    1.01491E-01  -149.28    1.33951E+00  -149.28
  -25.00     5.00     -18.12    3.89    3.92    0.00000    85.47  LINEAR    1.18223E-01  -142.34    1.49099E+00  -142.34
  -20.00     5.00     -17.06    4.64    4.67    0.00000    85.30  LINEAR    1.33636E-01  -135.11    1.62550E+00  -135.11
  -15.00     5.00     -16.24    5.22    5.25    0.00000    85.17  LINEAR    1.46806E-01  -127.64    1.73719E+00  -127.64
  -10.00     5.00     -15.66    5.63    5.66    0.00000    85.08  LINEAR    1.56896E-01  -120.00    1.82099E+00  -120.00
   -5.00     5.00     -15.32    5.87    5.91    0.00000    85.02  LINEAR    1.63238E-01  -112.24    1.87295E+00  -112.24
    0.00     5.00     -15.20    5.96    5.99    0.00000    85.00  LINEAR    1.65402E-01  -104.42    1.89055E+00  -104.42
 -180.00    10.00      -9.22    5.86    5.99    0.00000   -80.00  LINEAR    3.29545E-01    75.58    1.86894E+00  -104.42
 -175.00    10.00      -9.33    5.78    5.91    0.00000   -80.04  LINEAR    3.25290E-01    67.85    1.85186E+00  -112.15
 -170.00    10.00      -9.67    5.54    5.67    0.00000   -80.15  LINEAR    3.12816E-01    60.17    1.80144E+00  -119.83
 -165.00    10.00     -10.24    5.14    5.26    0.00000   -80.33  LINEAR    2.92967E-01    52.62    1.72011E+00  -127.38
 -160.00    10.00     -11.04    4.57    4.69    0.00000   -80.59  LINEAR    2.67049E-01    45.24    1.61171E+00  -134.76
 -155.00    10.00     -12.09    3.84    3.95    0.00000   -80.92  LINEAR    2.36700E-01    38.09    1.48116E+00  -141.91
 -150.00    10.00     -13.39    2.93    3.03    0.00000   -81.32  LINEAR    2.03727E-01    31.23    1.33413E+00  -148.77
 -145.00    10.00     -14.97    1.84    1.93    0.00000   -81.78  LINEAR    1.69949E-01    24.71    1.17662E+00  -155.29
 -140.00    10.00     -16.84    0.55    0.63    0.00000   -82.31  LINEAR    1.37046E-01    18.57    1.01459E+00  -161.43
 -135.00    10.00     -19.03   -0.95   -0.88    0.00000   -82.89  LINEAR    1.06438E-01    12.86    8.53679E-01  -167.14
 -130.00    10.00     -21.60   -2.69   -2.63    0.00000   -83.53  LINEAR    7.92147E-02     7.64    6.98907E-01  -172.36
 -125.00    10.00     -24.60   -4.70   -4.65    0.00000   -84.22  LINEAR    5.60879E-02     2.93    5.54574E-01  -177.07
 -120.00    10.00     -28.12   -7.02   -6.99    0.00000   -84.96  LINEAR    3.73965E-02    -1.23    4.24172E-01   178.77
 -115.00    10.00     -32.29   -9.74   -9.71    0.00000   -85.74  LINEAR    2.31313E-02    -4.80    3.10408E-01   175.20
 -110.00    10.00     -37.31  -12.92  -12.90    0.00000   -86.55  LINEAR    1.29827E-02    -7.76    2.15276E-01   172.24
 -105.00    10.00     -43.46  -16.64  -16.63    0.00000   -87.39  LINEAR    6.39668E-03   -10.09    1.40165E-01   169.91
 -100.00    10.00     -51.17  -20.89  -20.88    0.00000   -88.25  LINEAR    2.63276E-03   -11.76    8.59849E-02   168.24
  -95.00    10.00     -61.31  -25.04  -25.04    0.00000   -89.12  LINEAR    8.18901E-04   -12.77    5.32864E-02   167.23
  -90.00    10.00    -999.99  -27.04  -27.04    0.00000   -90.00  LINEAR    3.81161E-14   -13.11    4.23574E-02   166.89
  -85.00    10.00     -61.31  -25.04  -25.04    0.00000    89.12  LINEAR    8.18901E-04   167.23    5.32864E-02   167.23
  -80.00    10.00     -51.17  -20.89  -20.88    0.00000    88.25  LINEAR    2.63276E-03   168.24    8.59849E-02   168.24
  -75.00    10.00     -43.46  -16.64  -16.63    0.00000    87.39  LINEAR    6.39668E-03   169.91    1.40165E-01   169.91
  -70.00    10.00     -37.31  -12.92  -12.90    0.00000    86.55  LINEAR    1.29827E-02   172.24    2.15276E-01   172.24
  -65.00    10.00     -32.29   -9.74   -9.71    0.00000    85.74  LINEAR    2.31313E-02   175.20    3.10408E-01   175.20
  -60.00    10.00     -28.12   -7.02   -6.99    0.00000    84.96  LINEAR    3.73965E-02   178.77    4.24172E-01   178.77
  -55.00    10.00     -24.60   -4.70   -4.65    0.00000    84.22  LINEAR    5.60879E-02  -177.07    5.54574E-01  -177.07
  -50.00    10.00     -21.60   -2.69   -2.63    0.00000    83.53  LINEAR    7.92147E-02  -172.36    6.98907E-01  -172.36
  -45.00    10.00     -19.03   -0.95   -0.88    0.00000    82.89  LINEAR    1.06438E-01  -167.14    8.53679E-01  -167.14
  -40.00    10.00     -16.84    0.55    0.63    0.00000    82.31  LINEAR    1.37046E-01  -161.43    1.01459E+00  -161.43
  -35.00    10.00     -14.97    1.84    1.93    0.00000    81.78  LINEAR    1.69949E-01  -155.29    1.17662E+00  -155.29
  -30.00    10.00     -13.39    2.93    3.03    0.00000    81.32  LINEAR    2.03727E-01  -148.77    1.33413E+00  -148.77
  -25.00    10.00     -12.09    3.84    3.95    0.00000    80.92  LINEAR    2.36700E-01  -141.91    1.48116E+00  -141.91
  -20.00    10.00     -11.04    4.57    4.69    0.00000    80.59  LINEAR    2.67049E-01  -134.76    1.61171E+00  -134.76
  -15.00    10.00     -10.24    5.14    5.26    0.00000    80.33  LINEAR    2.92967E-01  -127.38    1.72011E+00  -127.38
  -10.00    10.00      -9.67    5.54    5.67    0.00000    80.15  LINEAR    3.12816E-01  -119.83    1.80144E+00  -119.83
   -5.00    10.00      -9.33    5.78    5.91    0.00000    80.04  LINEAR    3.25290E-01  -112.15    1.85186E+00  -112.15
    0.00    10.00      -9.22    5.86    5.99    0.00000    80.00  LINEAR    3.29545E-01  -104.42    1.86894E+00  -104.42
 -180.00    15.00      -5.75    5.69    5.99    0.00000   -75.00  LINEAR    4.91180E-01    75.58    1.83311E+00  -104.42
 -175.00    15.00      -5.86    5.61    5.91    0.00000   -75.05  LINEAR    4.84974E-01    67.99    1.81686E+00  -112.01
 -170.00    15.00      -6.19    5.38    5.67    0.00000   -75.22  LINEAR    4.66778E-01    60.47    1.76891E+00  -119.53
 -165.00    15.00      -6.75    4.99    5.27    0.00000   -75.49  LINEAR    4.37811E-01    53.06    1.69157E+00  -126.94
 -160.00    15.00      -7.54    4.44    4.71    0.00000   -75.87  LINEAR    3.99963E-01    45.82    1.58848E+00  -134.18
 -155.00    15.00      -8.56    3.74    3.99    0.00000   -76.35  LINEAR    3.55601E-01    38.81    1.46432E+00  -141.19
 -150.00    15.00      -9.82    2.87    3.09    0.00000   -76.94  LINEAR    3.07343E-01    32.08    1.32447E+00  -147.92
 -145.00    15.00     -11.35    1.82    2.03    0.00000   -77.62  LINEAR    2.57821E-01    25.68    1.17463E+00  -154.32
 -140.00    15.00     -13.15    0.60    0.78    0.00000   -78.40  LINEAR    2.09464E-01    19.66    1.02048E+00  -160.34
 -135.00    15.00     -15.26   -0.81   -0.66    0.00000   -79.27  LINEAR    1.64337E-01    14.07    8.67357E-01  -165.93
 -130.00    15.00     -17.71   -2.43   -2.30    0.00000   -80.23  LINEAR    1.24018E-01     8.94    7.20051E-01  -171.06
 -125.00    15.00     -20.53   -4.27   -4.17    0.00000   -81.26  LINEAR    8.95468E-02     4.32    5.82648E-01  -175.68
 -120.00    15.00     -23.81   -6.35   -6.27    0.00000   -82.37  LINEAR    6.14242E-02     0.25    4.58476E-01  -179.75
 -115.00    15.00     -27.61   -8.69   -8.64    0.00000   -83.54  LINEAR    3.96476E-02    -3.26    3.50119E-01   176.74
 -110.00    15.00     -32.05  -11.29  -11.26    0.00000   -84.76  LINEAR    2.37803E-02    -6.16    2.59485E-01   173.84
 -105.00    15.00     -37.28  -14.10  -14.08    0.00000   -86.03  LINEAR    1.30315E-02    -8.44    1.87909E-01   171.56
 -100.00    15.00     -43.53  -16.89  -16.88    0.00000   -87.34  LINEAR    6.34041E-03   -10.08    1.36268E-01   169.92
  -95.00    15.00     -51.78  -19.14  -19.14    0.00000   -88.66  LINEAR    2.45438E-03   -11.07    1.05098E-01   168.93
  -90.00    15.00    -999.99  -20.05  -20.05    0.00000   -90.00  LINEAR    1.29469E-13   -11.40    9.46789E-02   168.60
  -85.00    15.00     -51.78  -19.14  -19.14    0.00000    88.66  LINEAR    2.45438E-03   168.93    1.05098E-01   168.93
  -80.00    15.00     -43.53  -16.89  -16.88    0.00000    87.34  LINEAR    6.34041E-03   169.92    1.36268E-01   169.92
  -75.00    15.00     -37.28  -14.10  -14.08    0.00000    86.03  LINEAR    1.30315E-02   171.56    1.87909E-01   171.56
  -70.00    15.00     -32.05  -11.29  -11.26    0.00000    84.76  LINEAR    2.37803E-02   173.84    2.59485E-01   173.84
  -65.00    15.00     -27.61   -8.69   -8.64    0.00000    83.54  LINEAR    3.96476E-02   176.74    3.50119E-01   176.74
  -60.00    15.00     -23.81   -6.35   -6.27    0.00000    82.37  LINEAR    6.14242E-02  -179.75    4.58476E-01  -179.75
  -55.00    15.00     -20.53   -4.27   -4.17    0.00000    81.26  LINEAR    8.95468E-02  -175.68    5.82648E-01  -175.68
  -50.00    15.00     -17.71   -2.43   -2.30    0.00000    80.23  LINEAR    1.24018E-01  -171.06    7.20051E-01  -171.06
  -45.00    15.00     -15.26   -0.81   -0.66    0.00000    79.27  LINEAR    1.64337E-01  -165.93    8.67357E-01  -165.93
  -40.00    15.00     -13.15    0.60    0.78    0.00000    78.40  LINEAR    2.09464E-01  -160.34    1.02048E+00  -160.34
  -35.00    15.00     -11.35    1.82    2.03    0.00000    77.62  LINEAR    2.57821E-01  -154.32    1.17463E+00  -154.32
  -30.00    15.00      -9.82    2.87    3.09    0.00000    76.94  LINEAR    3.07343E-01  -147.92    1.32447E+00  -147.92
  -25.00    15.00      -8.56    3.74    3.99    0.00000    76.35  LINEAR    3.55601E-01  -141.19    1.46432E+00  -141.19
  -20.00    15.00      -7.54    4.44    4.71    0.00000    75.87  LINEAR    3.99963E-01  -134.18    1.58848E+00  -134.18
  -15.00    15.00      -6.75    4.99    5.27    0.00000    75.49  LINEAR    4.37811E-01  -126.94    1.69157E+00  -126.94
  -10.00    15.00      -6.19    5.38    5.67    0.00000    75.22  LINEAR    4.66778E-01  -119.53    1.76891E+00  -119.53
   -5.00    15.00      -5.86    5.61    5.91    0.00000    75.05  LINEAR    4.84974E-01  -112.01    1.81686E+00  -112.01
    0.00    15.00      -5.75    5.69    5.99    0.00000    75.00  LINEAR    4.91180E-01  -104.42    1.83311E+00  -104.42
 -180.00    20.00      -3.33    5.45    5.99    0.00000   -70.00  LINEAR    6.49077E-01    75.58    1.78332E+00  -104.42
 -175.00    20.00      -3.44    5.37    5.91    0.00000   -70.07  LINEAR    6.41120E-01    68.20    1.76819E+00  -111.80
 -170.00    20.00      -3.76    5.15    5.68    0.00000   -70.28  LINEAR    6.17784E-01    60.88    1.72353E+00  -119.12
 -165.00    20.00      -4.30    4.78    5.29    0.00000   -70.63  LINEAR    5.80612E-01    53.67    1.65149E+00  -126.33
 -160.00    20.00      -5.06    4.26    4.74    0.00000   -71.12  LINEAR    5.31999E-01    46.63    1.55546E+00  -133.37
 -155.00    20.00      -6.04    3.59    4.04    0.00000   -71.74  LINEAR    4.74944E-01    39.81    1.43980E+00  -140.19
 -150.00    20.00      -7.26    2.77    3.18    0.00000   -72.50  LINEAR    4.12764E-01    33.27    1.30950E+00  -146.73
 -145.00    20.00      -8.72    1.79    2.16    0.00000   -73.40  LINEAR    3.48795E-01    27.04    1.16988E+00  -152.96
 -140.00    20.00     -10.44    0.65    0.97    0.00000   -74.42  LINEAR    2.86124E-01    21.19    1.02620E+00  -158.81
 -135.00    20.00     -12.44   -0.65   -0.37    0.00000   -75.57  LINEAR    2.27372E-01    15.74    8.83458E-01  -164.26
 -130.00    20.00     -14.74   -2.12   -1.89    0.00000   -76.83  LINEAR    1.74553E-01    10.76    7.46094E-01  -169.24
 -125.00    20.00     -17.36   -3.76   -3.57    0.00000   -78.21  LINEAR    1.29001E-01     6.26    6.17924E-01  -173.74
 -120.00    20.00     -20.36   -5.56   -5.42    0.00000   -79.69  LINEAR    9.13667E-02     2.30    5.02056E-01  -177.70
 -115.00    20.00     -23.77   -7.51   -7.41    0.00000   -81.26  LINEAR    6.16682E-02    -1.11    4.00910E-01   178.89
 -110.00    20.00     -27.67   -9.57   -9.51    0.00000   -82.90  LINEAR    3.93720E-02    -3.93    3.16278E-01   176.07
 -105.00    20.00     -32.16  -11.64  -11.60    0.00000   -84.62  LINEAR    2.34961E-02    -6.15    2.49421E-01   173.85
 -100.00    20.00     -37.49  -13.50  -13.49    0.00000   -86.38  LINEAR    1.27147E-02    -7.75    2.01173E-01   172.25
  -95.00    20.00     -44.84  -14.86  -14.86    0.00000   -88.18  LINEAR    5.45764E-03    -8.71    1.72046E-01   171.29
  -90.00    20.00    -999.99  -15.37  -15.37    0.00000   -90.00  LINEAR    3.01486E-13    -9.03    1.62308E-01   170.97
  -85.00    20.00     -44.84  -14.86  -14.86    0.00000    88.18  LINEAR    5.45764E-03   171.29    1.72046E-01   171.29
  -80.00    20.00     -37.49  -13.50  -13.49    0.00000    86.38  LINEAR    1.27147E-02   172.25    2.01173E-01   172.25
  -75.00    20.00     -32.16  -11.64  -11.60    0.00000    84.62  LINEAR    2.34961E-02   173.85    2.49421E-01   173.85
  -70.00    20.00     -27.67   -9.57   -9.51    0.00000    82.90  LINEAR    3.93720E-02   176.07    3.16278E-01   176.07
  -65.00    20.00     -23.77   -7.51   -7.41    0.00000    81.26  LINEAR    6.16682E-02   178.89    4.00910E-01   178.89
  -60.00    20.00     -20.36   -5.56   -5.42    0.00000    79.69  LINEAR    9.13667E-02  -177.70    5.02056E-01  -177.70
  -55.00    20.00     -17.36   -3.76   -3.57    0.00000    78.21  LINEAR    1.29001E-01  -173.74    6.17924E-01  -173.74
  -50.00    20.00     -14.74   -2.12   -1.89    0.00000    76.83  LINEAR    1.74553E-01  -169.24    7.46094E-01  -169.24
  -45.00    20.00     -12.44   -0.65   -0.37    0.00000    75.57  LINEAR    2.27372E-01  -164.26    8.83458E-01  -164.26
  -40.00    20.00     -10.44    0.65    0.97    0.00000    74.42  LINEAR    2.86124E-01  -158.81    1.02620E+00  -158.81
  -35.00    20.00      -8.72    1.79    2.16    0.00000    73.40  LINEAR    3.48795E-01  -152.96    1.16988E+00  -152.96
  -30.00    20.00      -7.26    2.77    3.18    0.00000    72.50  LINEAR    4.12764E-01  -146.73    1.30950E+00  -146.73
  -25.00    20.00      -6.04    3.59    4.04    0.00000    71.74  LINEAR    4.74944E-01  -140.19    1.43980E+00  -140.19
  -20.00    20.00      -5.06    4.26    4.74    0.00000    71.12  LINEAR    5.31999E-01  -133.37    1.55546E+00  -133.37
  -15.00    20.00      -4.30    4.78    5.29    0.00000    70.63  LINEAR    5.80612E-01  -126.33    1.65149E+00  -126.33
  -10.00    20.00      -3.76    5.15    5.68    0.00000    70.28  LINEAR    6.17784E-01  -119.12    1.72353E+00  -119.12
   -5.00    20.00      -3.44    5.37    5.91    0.00000    70.07  LINEAR    6.41120E-01  -111.80    1.76819E+00  -111.80
    0.00    20.00      -3.33    5.45    5.99    0.00000    70.00  LINEAR    6.49077E-01  -104.42    1.78332E+00  -104.42
 -180.00    25.00      -1.49    5.13    5.99    0.00000   -65.00  LINEAR    8.02034E-01    75.58    1.71997E+00  -104.42
 -175.00    25.00      -1.59    5.06    5.91    0.00000   -65.08  LINEAR    7.92574E-01    68.46    1.70617E+00  -111.54
 -170.00    25.00      -1.90    4.85    5.69    0.00000   -65.33  LINEAR    7.64819E-01    61.40    1.66546E+00  -118.60
 -165.00    25.00      -2.42    4.51    5.31    0.00000   -65.75  LINEAR    7.20575E-01    54.45    1.59979E+00  -125.55
 -160.00    25.00      -3.15    4.02    4.78    0.00000   -66.34  LINEAR    6.62641E-01    47.66    1.51224E+00  -132.34
 -155.00    25.00      -4.09    3.39    4.10    0.00000   -67.09  LINEAR    5.94526E-01    41.09    1.40677E+00  -138.91
 -150.00    25.00      -5.25    2.62    3.28    0.00000   -68.01  LINEAR    5.20115E-01    34.77    1.28794E+00  -145.23
 -145.00    25.00      -6.64    1.72    2.31    0.00000   -69.09  LINEAR    4.43314E-01    28.77    1.16058E+00  -151.23
 -140.00    25.00      -8.26    0.68    1.20    0.00000   -70.34  LINEAR    3.67746E-01    23.12    1.02949E+00  -156.88
 -135.00    25.00     -10.14   -0.50   -0.05    0.00000   -71.75  LINEAR    2.96493E-01    17.87    8.99203E-01  -162.13
 -130.00    25.00     -12.27   -1.80   -1.43    0.00000   -73.31  LINEAR    2.31931E-01    13.07    7.73783E-01  -166.93
 -125.00    25.00     -14.68   -3.23   -2.93    0.00000   -75.03  LINEAR    1.75646E-01     8.73    6.56711E-01  -171.27
 -120.00    25.00     -17.40   -4.76   -4.53    0.00000   -76.88  LINEAR    1.28428E-01     4.91    5.50831E-01  -175.09
 -115.00    25.00     -20.46   -6.35   -6.19    0.00000   -78.85  LINEAR    9.03299E-02     1.62    4.58364E-01  -178.38
 -110.00    25.00     -23.90   -7.96   -7.85    0.00000   -80.94  LINEAR    6.07584E-02    -1.10    3.80962E-01   178.90
 -105.00    25.00     -27.85   -9.48   -9.42    0.00000   -83.12  LINEAR    3.85956E-02    -3.24    3.19793E-01   176.76
 -100.00    25.00     -32.60  -10.77  -10.74    0.00000   -85.37  LINEAR    2.23193E-02    -4.78    2.75637E-01   175.22
  -95.00    25.00     -39.47  -11.65  -11.65    0.00000   -87.67  LINEAR    1.01186E-02    -5.71    2.48973E-01   174.29
  -90.00    25.00    -999.99  -11.97  -11.97    0.00000   -90.00  LINEAR    5.71281E-13    -6.02    2.40058E-01   173.98
  -85.00    25.00     -39.47  -11.65  -11.65    0.00000    87.67  LINEAR    1.01186E-02   174.29    2.48973E-01   174.29
  -80.00    25.00     -32.60  -10.77  -10.74    0.00000    85.37  LINEAR    2.23193E-02   175.22    2.75637E-01   175.22
  -75.00    25.00     -27.85   -9.48   -9.42    0.00000    83.12  LINEAR    3.85956E-02   176.76    3.19793E-01   176.76
  -70.00    25.00     -23.90   -7.96   -7.85    0.00000    80.94  LINEAR    6.07584E-02   178.90    3.80962E-01   178.90
  -65.00    25.00     -20.46   -6.35   -6.19    0.00000    78.85  LINEAR    9.03299E-02  -178.38    4.58364E-01  -178.38
  -60.00    25.00     -17.40   -4.76   -4.53    0.00000    76.88  LINEAR    1.28428E-01  -175.09    5.50831E-01  -175.09
  -55.00    25.00     -14.68   -3.23   -2.93    0.00000    75.03  LINEAR    1.75646E-01  -171.27    6.56711E-01  -171.27
  -50.00    25.00     -12.27   -1.80   -1.43    0.00000    73.31  LINEAR    2.31931E-01  -166.93    7.73783E-01  -166.93
  -45.00    25.00     -10.14   -0.50   -0.05    0.00000    71.75  LINEAR    2.96493E-01  -162.13    8.99203E-01  -162.13
  -40.00    25.00      -8.26    0.68    1.20    0.00000    70.34  LINEAR    3.67746E-01  -156.88    1.02949E+00  -156.88
  -35.00    25.00      -6.64    1.72    2.31    0.00000    69.09  LINEAR    4.43314E-01  -151.23    1.16058E+00  -151.23
  -30.00    25.00      -5.25    2.62    3.28    0.00000    68.01  LINEAR    5.20115E-01  -145.23    1.28794E+00  -145.23
  -25.00    25.00      -4.09    3.39    4.10    0.00000    67.09  LINEAR    5.94526E-01  -138.91    1.40677E+00  -138.91
  -20.00    25.00      -3.15    4.02    4.78    0.00000    66.34  LINEAR    6.62641E-01  -132.34    1.51224E+00  -132.34
  -15.00    25.00      -2.42    4.51    5.31    0.00000    65.75  LINEAR    7.20575E-01  -125.55    1.59979E+00  -125.55
  -10.00    25.00      -1.90    4.85    5.69    0.00000    65.33  LINEAR    7.64819E-01  -118.60    1.66546E+00  -118.60
   -5.00    25.00      -1.59    5.06    5.91    0.00000    65.08  LINEAR    7.92574E-01  -111.54    1.70617E+00  -111.54
    0.00    25.00      -1.49    5.13    5.99    0.00000    65.00  LINEAR    8.02034E-01  -104.42    1.71997E+00  -104.42
 -180.00    30.00      -0.03    4.74    5.99    0.00000   -60.00  LINEAR    9.48887E-01    75.58    1.64352E+00  -104.42
 -175.00    30.00      -0.13    4.67    5.92    0.00000   -60.09  LINEAR    9.38205E-01    68.78    1.63123E+00  -111.22
 -170.00    30.00      -0.43    4.48    5.70    0.00000   -60.38  LINEAR    9.06849E-01    62.03    1.59494E+00  -117.97
 -165.00    30.00      -0.92    4.15    5.33    0.00000   -60.85  LINEAR    8.56814E-01    55.39    1.53640E+00  -124.61
 -160.00    30.00      -1.61    3.70    4.82    0.00000   -61.52  LINEAR    7.91197E-01    48.90    1.45834E+00  -131.10
 -155.00    30.00      -2.50    3.12    4.17    0.00000   -62.38  LINEAR    7.13879E-01    42.62    1.36430E+00  -137.38
 -150.00    30.00      -3.60    2.42    3.39    0.00000   -63.43  LINEAR    6.29158E-01    36.59    1.25832E+00  -143.41
 -145.00    30.00      -4.91    1.60    2.47    0.00000   -64.69  LINEAR    5.41367E-01    30.85    1.14469E+00  -149.15
 -140.00    30.00      -6.42    0.66    1.44    0.00000   -66.14  LINEAR    4.54526E-01    25.46    1.02770E+00  -154.54
 -135.00    30.00      -8.16   -0.38    0.29    0.00000   -67.79  LINEAR    3.72067E-01    20.45    9.11375E-01  -159.55
 -130.00    30.00     -10.13   -1.52   -0.96    0.00000   -69.64  LINEAR    2.96649E-01    15.85    7.99348E-01  -164.15
 -125.00    30.00     -12.34   -2.74   -2.29    0.00000   -71.68  LINEAR    2.30061E-01    11.71    6.94725E-01  -168.29
 -120.00    30.00     -14.80   -4.01   -3.66    0.00000   -73.90  LINEAR    1.73221E-01     8.06    6.00056E-01  -171.94
 -115.00    30.00     -17.55   -5.30   -5.05    0.00000   -76.29  LINEAR    1.26230E-01     4.92    5.17338E-01  -175.08
 -110.00    30.00     -20.64   -6.55   -6.38    0.00000   -78.83  LINEAR    8.84768E-02     2.32    4.48062E-01  -177.68
 -105.00    30.00     -24.19   -7.68   -7.59    0.00000   -81.50  LINEAR    5.87693E-02     0.28    3.93292E-01  -179.72
 -100.00    30.00     -28.58   -8.60   -8.56    0.00000   -84.27  LINEAR    3.54645E-02    -1.19    3.53740E-01   178.81
  -95.00    30.00     -35.17   -9.21   -9.20    0.00000   -87.12  LINEAR    1.65979E-02    -2.08    3.29851E-01   177.92
  -90.00    30.00    -999.99   -9.42   -9.42    0.00000   -90.00  LINEAR    9.48356E-13    -2.38    3.21863E-01   177.62
  -85.00    30.00     -35.17   -9.21   -9.20    0.00000    87.12  LINEAR    1.65979E-02   177.92    3.29851E-01   177.92
  -80.00    30.00     -28.58   -8.60   -8.56    0.00000    84.27  LINEAR    3.54645E-02   178.81    3.53740E-01   178.81
  -75.00    30.00     -24.19   -7.68   -7.59    0.00000    81.50  LINEAR    5.87693E-02  -179.72    3.93292E-01  -179.72
  -70.00    30.00     -20.64   -6.55   -6.38    0.00000    78.83  LINEAR    8.84768E-02  -177.68    4.48062E-01  -177.68
  -65.00    30.00     -17.55   -5.30   -5.05    0.00000    76.29  LINEAR    1.26230E-01  -175.08    5.17338E-01  -175.08
  -60.00    30.00     -14.80   -4.01   -3.66    0.00000    73.90  LINEAR    1.73221E-01  -171.94    6.00056E-01  -171.94
  -55.00    30.00     -12.34   -2.74   -2.29    0.00000    71.68  LINEAR    2.30061E-01  -168.29    6.94725E-01  -168.29
  -50.00    30.00     -10.13   -1.52   -0.96    0.00000    69.64  LINEAR    2.96649E-01  -164.15    7.99348E-01  -164.15
  -45.00    30.00      -8.16   -0.38    0.29    0.00000    67.79  LINEAR    3.72067E-01  -159.55    9.11375E-01  -159.55
  -40.00    30.00      -6.42    0.66    1.44    0.00000    66.14  LINEAR    4.54526E-01  -154.54    1.02770E+00  -154.54
  -35.00    30.00      -4.91    1.60    2.47    0.00000    64.69  LINEAR    5.41367E-01  -149.15    1.14469E+00  -149.15
  -30.00    30.00      -3.60    2.42    3.39    0.00000    63.43  LINEAR    6.29158E-01  -143.41    1.25832E+00  -143.41
  -25.00    30.00      -2.50    3.12    4.17    0.00000    62.38  LINEAR    7.13879E-01  -137.38    1.36430E+00  -137.38
  -20.00    30.00      -1.61    3.70    4.82    0.00000    61.52  LINEAR    7.91197E-01  -131.10    1.45834E+00  -131.10
  -15.00    30.00      -0.92    4.15    5.33    0.00000    60.85  LINEAR    8.56814E-01  -124.61    1.53640E+00  -124.61
  -10.00    30.00      -0.43    4.48    5.70    0.00000    60.38  LINEAR    9.06849E-01  -117.97    1.59494E+00  -117.97
   -5.00    30.00      -0.13    4.67    5.92    0.00000    60.09  LINEAR    9.38205E-01  -111.22    1.63123E+00  -111.22
    0.00    30.00      -0.03    4.74    5.99    0.00000    60.00  LINEAR    9.48887E-01  -104.42    1.64352E+00  -104.42
 -180.00    35.00       1.16    4.26    5.99    0.00000   -55.00  LINEAR    1.08852E+00    75.58    1.55457E+00  -104.42
 -175.00    35.00       1.07    4.20    5.92    0.00000   -55.10  LINEAR    1.07691E+00    69.15    1.54386E+00  -110.85
 -170.00    35.00       0.79    4.02    5.71    0.00000   -55.41  LINEAR    1.04282E+00    62.77    1.51228E+00  -117.23
 -165.00    35.00       0.32    3.72    5.36    0.00000   -55.93  LINEAR    9.88356E-01    56.49    1.46131E+00  -123.51
 -160.00    35.00      -0.33    3.31    4.87    0.00000   -56.66  LINEAR    9.16793E-01    50.35    1.39334E+00  -129.65
 -155.00    35.00      -1.17    2.78    4.25    0.00000   -57.60  LINEAR    8.32242E-01    44.41    1.31144E+00  -135.59
 -150.00    35.00      -2.20    2.14    3.50    0.00000   -58.77  LINEAR    7.39258E-01    38.70    1.21910E+00  -141.30
 -145.00    35.00      -3.42    1.41    2.64    0.00000   -60.16  LINEAR    6.42442E-01    33.28    1.12006E+00  -146.72
 -140.00    35.00      -4.83    0.58    1.68    0.00000   -61.79  LINEAR    5.46071E-01    28.18    1.01805E+00  -151.82
 -135.00    35.00      -6.44   -0.33    0.62    0.00000   -63.66  LINEAR    4.53811E-01    23.44    9.16565E-01  -156.56
 -130.00    35.00      -8.25   -1.31   -0.51    0.00000   -65.77  LINEAR    3.68518E-01    19.09    8.18775E-01  -160.91
 -125.00    35.00     -10.26   -2.34   -1.69    0.00000   -68.12  LINEAR    2.92138E-01    15.18    7.27394E-01  -164.82
 -120.00    35.00     -12.51   -3.39   -2.89    0.00000   -70.70  LINEAR    2.25697E-01    11.73    6.44657E-01  -168.27
 -115.00    35.00     -15.00   -4.42   -4.06    0.00000   -73.52  LINEAR    1.69362E-01     8.76    5.72321E-01  -171.24
 -110.00    35.00     -17.81   -5.40   -5.15    0.00000   -76.53  LINEAR    1.22546E-01     6.30    5.11707E-01  -173.70
 -105.00    35.00     -21.09   -6.25   -6.11    0.00000   -79.73  LINEAR    8.40458E-02     4.37    4.63760E-01  -175.63
 -100.00    35.00     -25.23   -6.92   -6.86    0.00000   -83.07  LINEAR    5.21768E-02     2.98    4.29122E-01  -177.02
  -95.00    35.00     -31.65   -7.36   -7.34    0.00000   -86.51  LINEAR    2.49109E-02     2.14    4.08195E-01  -177.86
  -90.00    35.00    -999.99   -7.51   -7.51    0.00000   -90.00  LINEAR    1.43365E-12     1.86    4.01196E-01  -178.14
  -85.00    35.00     -31.65   -7.36   -7.34    0.00000    86.51  LINEAR    2.49109E-02  -177.86    4.08195E-01  -177.86
  -80.00    35.00     -25.23   -6.92   -6.86    0.00000    83.07  LINEAR    5.21768E-02  -177.02    4.29122E-01  -177.02
  -75.00    35.00     -21.09   -6.25   -6.11    0.00000    79.73  LINEAR    8.40458E-02  -175.63    4.63760E-01  -175.63
  -70.00    35.00     -17.81   -5.40   -5.15    0.00000    76.53  LINEAR    1.22546E-01  -173.70    5.11707E-01  -173.70
  -65.00    35.00     -15.00   -4.42   -4.06    0.00000    73.52  LINEAR    1.69362E-01  -171.24    5.72321E-01  -171.24
  -60.00    35.00     -12.51   -3.39   -2.89    0.00000    70.70  LINEAR    2.25697E-01  -168.27    6.44657E-01  -168.27
  -55.00    35.00     -10.26   -2.34   -1.69    0.00000    68.12  LINEAR    2.92138E-01  -164.82    7.27394E-01  -164.82
  -50.00    35.00      -8.25   -1.31   -0.51    0.00000    65.77  LINEAR    3.68518E-01  -160.91    8.18775E-01  -160.91
  -45.00    35.00      -6.44   -0.33    0.62    0.00000    63.66  LINEAR    4.53811E-01  -156.56    9.16565E-01  -156.56
  -40.00    35.00      -4.83    0.58    1.68    0.00000    61.79  LINEAR    5.46071E-01  -151.82    1.01805E+00  -151.82
  -35.00    35.00      -3.42    1.41    2.64    0.00000    60.16  LINEAR    6.42442E-01  -146.72    1.12006E+00  -146.72
  -30.00    35.00      -2.20    2.14    3.50    0.00000    58.77  LINEAR    7.39258E-01  -141.30    1.21910E+00  -141.30
  -25.00    35.00      -1.17    2.78    4.25    0.00000    57.60  LINEAR    8.32242E-01  -135.59    1.31144E+00  -135.59
  -20.00    35.00      -0.33    3.31    4.87    0.00000    56.66  LINEAR    9.16793E-01  -129.65    1.39334E+00  -129.65
  -15.00    35.00       0.32    3.72    5.36    0.00000    55.93  LINEAR    9.88356E-01  -123.51    1.46131E+00  -123.51
  -10.00    35.00       0.79    4.02    5.71    0.00000    55.41  LINEAR    1.04282E+00  -117.23    1.51228E+00  -117.23
   -5.00    35.00       1.07    4.20    5.92    0.00000    55.10  LINEAR    1.07691E+00  -110.85    1.54386E+00  -110.85
    0.00    35.00       1.16    4.26    5.99    0.00000    55.00  LINEAR    1.08852E+00  -104.42    1.55457E+00  -104.42
 -180.00    40.00       2.15    3.67    5.99    0.00000   -50.00  LINEAR    1.21987E+00    75.58    1.45378E+00  -104.42
 -175.00    40.00       2.06    3.62    5.92    0.00000   -50.11  LINEAR    1.20763E+00    69.56    1.44470E+00  -110.44
 -170.00    40.00       1.80    3.46    5.72    0.00000   -50.43  LINEAR    1.17167E+00    63.60    1.41788E+00  -116.40
 -165.00    40.00       1.36    3.19    5.38    0.00000   -50.97  LINEAR    1.11414E+00    57.72    1.37461E+00  -122.28
 -160.00    40.00       0.75    2.82    4.92    0.00000   -51.74  LINEAR    1.03837E+00    51.99    1.31689E+00  -128.01
 -155.00    40.00      -0.03    2.34    4.33    0.00000   -52.75  LINEAR    9.48558E-01    46.43    1.24731E+00  -133.57
 -150.00    40.00      -0.99    1.78    3.62    0.00000   -53.99  LINEAR    8.49370E-01    41.10    1.16883E+00  -138.90
 -145.00    40.00      -2.13    1.13    2.81    0.00000   -55.50  LINEAR    7.45514E-01    36.03    1.08462E+00  -143.97
 -140.00    40.00      -3.43    0.41    1.91    0.00000   -57.27  LINEAR    6.41387E-01    31.26    9.97822E-01  -148.74
 -135.00    40.00      -4.92   -0.38    0.93    0.00000   -59.32  LINEAR    5.40775E-01    26.83    9.11420E-01  -153.17
 -130.00    40.00      -6.58   -1.21   -0.11    0.00000   -61.66  LINEAR    4.46648E-01    22.77    8.28103E-01  -157.23
 -125.00    40.00      -8.42   -2.07   -1.17    0.00000   -64.30  LINEAR    3.61058E-01    19.11    7.50191E-01  -160.89
 -120.00    40.00     -10.48   -2.93   -2.23    0.00000   -67.24  LINEAR    2.85124E-01    15.88    6.79596E-01  -164.12
 -115.00    40.00     -12.76   -3.76   -3.24    0.00000   -70.47  LINEAR    2.19095E-01    13.11    6.17832E-01  -166.89
 -110.00    40.00     -15.36   -4.52   -4.18    0.00000   -73.99  LINEAR    1.62448E-01    10.81    5.66042E-01  -169.19
 -105.00    40.00     -18.44   -5.17   -4.97    0.00000   -77.75  LINEAR    1.14028E-01     9.00    5.25052E-01  -171.00
 -100.00    40.00     -22.41   -5.68   -5.58    0.00000   -81.71  LINEAR    7.21875E-02     7.70    4.95425E-01  -172.30
  -95.00    40.00     -28.71   -6.00   -5.97    0.00000   -85.82  LINEAR    3.49222E-02     6.92    4.77520E-01  -173.08
  -90.00    40.00    -999.99   -6.11   -6.11    0.00000   -90.00  LINEAR    2.01923E-12     6.65    4.71531E-01  -173.35
  -85.00    40.00     -28.71   -6.00   -5.97    0.00000    85.82  LINEAR    3.49222E-02  -173.08    4.77520E-01  -173.08
  -80.00    40.00     -22.41   -5.68   -5.58    0.00000    81.71  LINEAR    7.21875E-02  -172.30    4.95425E-01  -172.30
  -75.00    40.00     -18.44   -5.17   -4.97    0.00000    77.75  LINEAR    1.14028E-01  -171.00    5.25052E-01  -171.00
  -70.00    40.00     -15.36   -4.52   -4.18    0.00000    73.99  LINEAR    1.62448E-01  -169.19    5.66042E-01  -169.19
  -65.00    40.00     -12.76   -3.76   -3.24    0.00000    70.47  LINEAR    2.19095E-01  -166.89    6.17832E-01  -166.89
  -60.00    40.00     -10.48   -2.93   -2.23    0.00000    67.24  LINEAR    2.85124E-01  -164.12    6.79596E-01  -164.12
  -55.00    40.00      -8.42   -2.07   -1.17    0.00000    64.30  LINEAR    3.61058E-01  -160.89    7.50191E-01  -160.89
  -50.00    40.00      -6.58   -1.21   -0.11    0.00000    61.66  LINEAR    4.46648E-01  -157.23    8.28103E-01  -157.23
  -45.00    40.00      -4.92   -0.38    0.93    0.00000    59.32  LINEAR    5.40775E-01  -153.17    9.11420E-01  -153.17
  -40.00    40.00      -3.43    0.41    1.91    0.00000    57.27  LINEAR    6.41387E-01  -148.74    9.97822E-01  -148.74
  -35.00    40.00      -2.13    1.13    2.81    0.00000    55.50  LINEAR    7.45514E-01  -143.97    1.08462E+00  -143.97
  -30.00    40.00      -0.99    1.78    3.62    0.00000    53.99  LINEAR    8.49370E-01  -138.90    1.16883E+00  -138.90
  -25.00    40.00      -0.03    2.34    4.33    0.00000    52.75  LINEAR    9.48558E-01  -133.57    1.24731E+00  -133.57
  -20.00    40.00       0.75    2.82    4.92    0.00000    51.74  LINEAR    1.03837E+00  -128.01    1.31689E+00  -128.01
  -15.00    40.00       1.36    3.19    5.38    0.00000    50.97  LINEAR    1.11414E+00  -122.28    1.37461E+00  -122.28
  -10.00    40.00       1.80    3.46    5.72    0.00000    50.43  LINEAR    1.17167E+00  -116.40    1.41788E+00  -116.40
   -5.00    40.00       2.06    3.62    5.92    0.00000    50.11  LINEAR    1.20763E+00  -110.44    1.44470E+00  -110.44
    0.00    40.00       2.15    3.67    5.99    0.00000    50.00  LINEAR    1.21987E+00  -104.42    1.45378E+00  -104.42
 -180.00    45.00       2.98    2.98    5.99    0.00000   -45.00  LINEAR    1.34193E+00    75.58    1.34193E+00  -104.42
 -175.00    45.00       2.90    2.93    5.92    0.00000   -45.11  LINEAR    1.32935E+00    70.03    1.33442E+00  -109.97
 -170.00    45.00       2.65    2.78    5.73    0.00000   -45.44  LINEAR    1.29233E+00    64.52    1.31227E+00  -115.48
 -165.00    45.00       2.24    2.54    5.41    0.00000   -45.99  LINEAR    1.23301E+00    59.10    1.27651E+00  -120.90
 -160.00    45.00       1.67    2.21    4.96    0.00000   -46.78  LINEAR    1.15468E+00    53.80    1.22879E+00  -126.20
 -155.00    45.00       0.94    1.80    4.40    0.00000   -47.81  LINEAR    1.06149E+00    48.68    1.17123E+00  -131.32
 -150.00    45.00       0.05    1.30    3.73    0.00000   -49.11  LINEAR    9.58063E-01    43.75    1.10628E+00  -136.25
 -145.00    45.00      -1.00    0.74    2.97    0.00000   -50.68  LINEAR    8.49073E-01    39.08    1.03653E+00  -140.92
 -140.00    45.00      -2.20    0.11    2.12    0.00000   -52.55  LINEAR    7.38911E-01    34.68    9.64580E-01  -145.32
 -135.00    45.00      -3.57   -0.56    1.20    0.00000   -54.74  LINEAR    6.31377E-01    30.59    8.92901E-01  -149.41
 -130.00    45.00      -5.10   -1.26    0.24    0.00000   -57.27  LINEAR    5.29477E-01    26.84    8.23720E-01  -153.16
 -125.00    45.00      -6.80   -1.97   -0.74    0.00000   -60.16  LINEAR    4.35325E-01    23.47    7.58967E-01  -156.53
 -120.00    45.00      -8.69   -2.67   -1.70    0.00000   -63.43  LINEAR    3.50121E-01    20.49    7.00241E-01  -159.51
 -115.00    45.00     -10.81   -3.33   -2.62    0.00000   -67.09  LINEAR    2.74202E-01    17.93    6.48816E-01  -162.07
 -110.00    45.00     -13.25   -3.93   -3.45    0.00000   -71.12  LINEAR    2.07148E-01    15.81    6.05662E-01  -164.19
 -105.00    45.00     -16.18   -4.44   -4.15    0.00000   -75.49  LINEAR    1.47910E-01    14.14    5.71482E-01  -165.86
 -100.00    45.00     -20.03   -4.82   -4.69    0.00000   -80.15  LINEAR    9.49447E-02    12.94    5.46765E-01  -167.06
  -95.00    45.00     -26.25   -5.06   -5.03    0.00000   -85.02  LINEAR    4.63512E-02    12.22    5.31820E-01  -167.78
  -90.00    45.00    -999.99   -5.14   -5.14    0.00000   -90.00  LINEAR    2.68858E-12    11.98    5.26821E-01  -168.02
  -85.00    45.00     -26.25   -5.06   -5.03    0.00000    85.02  LINEAR    4.63512E-02  -167.78    5.31820E-01  -167.78
  -80.00    45.00     -20.03   -4.82   -4.69    0.00000    80.15  LINEAR    9.49447E-02  -167.06    5.46765E-01  -167.06
  -75.00    45.00     -16.18   -4.44   -4.15    0.00000    75.49  LINEAR    1.47910E-01  -165.86    5.71482E-01  -165.86
  -70.00    45.00     -13.25   -3.93   -3.45    0.00000    71.12  LINEAR    2.07148E-01  -164.19    6.05662E-01  -164.19
  -65.00    45.00     -10.81   -3.33   -2.62    0.00000    67.09  LINEAR    2.74202E-01  -162.07    6.48816E-01  -162.07
  -60.00    45.00      -8.69   -2.67   -1.70    0.00000    63.43  LINEAR    3.50121E-01  -159.51    7.00241E-01  -159.51
  -55.00    45.00      -6.80   -1.97   -0.74    0.00000    60.16  LINEAR    4.35325E-01  -156.53    7.58967E-01  -156.53
  -50.00    45.00      -5.10   -1.26    0.24    0.00000    57.27  LINEAR    5.29477E-01  -153.16    8.23720E-01  -153.16
  -45.00    45.00      -3.57   -0.56    1.20    0.00000    54.74  LINEAR    6.31377E-01  -149.41    8.92901E-01  -149.41
  -40.00    45.00      -2.20    0.11    2.12    0.00000    52.55  LINEAR    7.38911E-01  -145.32    9.64580E-01  -145.32
  -35.00    45.00      -1.00    0.74    2.97    0.00000    50.68  LINEAR    8.49073E-01  -140.92    1.03653E+00  -140.92
  -30.00    45.00       0.05    1.30    3.73    0.00000    49.11  LINEAR    9.58063E-01  -136.25    1.10628E+00  -136.25
  -25.00    45.00       0.94    1.80    4.40    0.00000    47.81  LINEAR    1.06149E+00  -131.32    1.17123E+00  -131.32
  -20.00    45.00       1.67    2.21    4.96    0.00000    46.78  LINEAR    1.15468E+00  -126.20    1.22879E+00  -126.20
  -15.00    45.00       2.24    2.54    5.41    0.00000    45.99  LINEAR    1.23301E+00  -120.90    1.27651E+00  -120.90
  -10.00    45.00       2.65    2.78    5.73    0.00000    45.44  LINEAR    1.29233E+00  -115.48    1.31227E+00  -115.48
   -5.00    45.00       2.90    2.93    5.92    0.00000    45.11  LINEAR    1.32935E+00  -109.97    1.33442E+00  -109.97
    0.00    45.00       2.98    2.98    5.99    0.00000    45.00  LINEAR    1.34193E+00  -104.42    1.34193E+00  -104.42
 -180.00    50.00       3.67    2.15    5.99    0.00000   -40.00  LINEAR    1.45378E+00    75.58    1.21987E+00  -104.42
 -175.00    50.00       3.60    2.11    5.93    0.00000   -40.11  LINEAR    1.44110E+00    70.53    1.21384E+00  -109.47
 -170.00    50.00       3.37    1.98    5.74    0.00000   -40.43  LINEAR    1.40376E+00    65.53    1.19606E+00  -114.47
 -165.00    50.00       2.99    1.77    5.43    0.00000   -40.98  LINEAR    1.34379E+00    60.60    1.16735E+00  -119.40
 -160.00    50.00       2.46    1.48    5.01    0.00000   -41.76  LINEAR    1.26437E+00    55.79    1.12902E+00  -124.21
 -155.00    50.00       1.78    1.11    4.47    0.00000   -42.79  LINEAR    1.16948E+00    51.13    1.08276E+00  -128.87
 -150.00    50.00       0.96    0.69    3.83    0.00000   -44.10  LINEAR    1.06358E+00    46.65    1.03051E+00  -133.35
 -145.00    50.00      -0.01    0.20    3.11    0.00000   -45.69  LINEAR    9.51185E-01    42.40    9.74348E-01  -137.60
 -140.00    50.00      -1.13   -0.33    2.30    0.00000   -47.61  LINEAR    8.36577E-01    38.40    9.16359E-01  -141.60
 -135.00    50.00      -2.39   -0.90    1.43    0.00000   -49.88  LINEAR    7.23473E-01    34.69    8.58521E-01  -145.31
 -130.00    50.00      -3.80   -1.49    0.52    0.00000   -52.55  LINEAR    6.14853E-01    31.29    8.02634E-01  -148.71
 -125.00    50.00      -5.38   -2.07   -0.41    0.00000   -55.64  LINEAR    5.12850E-01    28.22    7.50261E-01  -151.78
 -120.00    50.00      -7.14   -2.64   -1.32    0.00000   -59.21  LINEAR    4.18727E-01    25.52    7.02708E-01  -154.48
 -115.00    50.00      -9.13   -3.17   -2.19    0.00000   -63.27  LINEAR    3.32927E-01    23.19    6.61020E-01  -156.81
 -110.00    50.00     -11.44   -3.64   -2.98    0.00000   -67.82  LINEAR    2.55161E-01    21.27    6.26002E-01  -158.73
 -105.00    50.00     -14.25   -4.04   -3.64    0.00000   -72.86  LINEAR    1.84527E-01    19.75    5.98242E-01  -160.25
 -100.00    50.00     -18.02   -4.33   -4.15    0.00000   -78.31  LINEAR    1.19646E-01    18.66    5.78154E-01  -161.34
  -95.00    50.00     -24.19   -4.52   -4.47    0.00000   -84.07  LINEAR    5.87896E-02    18.01    5.66002E-01  -161.99
  -90.00    50.00    -999.99   -4.58   -4.58    0.00000   -90.00  LINEAR    3.41770E-12    17.79    5.61936E-01  -162.21
  -85.00    50.00     -24.19   -4.52   -4.47    0.00000    84.07  LINEAR    5.87896E-02  -161.99    5.66002E-01  -161.99
  -80.00    50.00     -18.02   -4.33   -4.15    0.00000    78.31  LINEAR    1.19646E-01  -161.34    5.78154E-01  -161.34
  -75.00    50.00     -14.25   -4.04   -3.64    0.00000    72.86  LINEAR    1.84527E-01  -160.25    5.98242E-01  -160.25
  -70.00    50.00     -11.44   -3.64   -2.98    0.00000    67.82  LINEAR    2.55161E-01  -158.73    6.26002E-01  -158.73
  -65.00    50.00      -9.13   -3.17   -2.19    0.00000    63.27  LINEAR    3.32927E-01  -156.81    6.61020E-01  -156.81
  -60.00    50.00      -7.14   -2.64   -1.32    0.00000    59.21  LINEAR    4.18727E-01  -154.48    7.02708E-01  -154.48
  -55.00    50.00      -5.38   -2.07   -0.41    0.00000    55.64  LINEAR    5.12850E-01  -151.78    7.50261E-01  -151.78
  -50.00    50.00      -3.80   -1.49    0.52    0.00000    52.55  LINEAR    6.14853E-01  -148.71    8.02634E-01  -148.71
  -45.00    50.00      -2.39   -0.90    1.43    0.00000    49.88  LINEAR    7.23473E-01  -145.31    8.58521E-01  -145.31
  -40.00    50.00      -1.13   -0.33    2.30    0.00000    47.61  LINEAR    8.36577E-01  -141.60    9.16359E-01  -141.60
  -35.00    50.00      -0.01    0.20    3.11    0.00000    45.69  LINEAR    9.51185E-01  -137.60    9.74348E-01  -137.60
  -30.00    50.00       0.96    0.69    3.83    0.00000    44.10  LINEAR    1.06358E+00  -133.35    1.03051E+00  -133.35
  -25.00    50.00       1.78    1.11    4.47    0.00000    42.79  LINEAR    1.16948E+00  -128.87    1.08276E+00  -128.87
  -20.00    50.00       2.46    1.48    5.01    0.00000    41.76  LINEAR    1.26437E+00  -124.21    1.12902E+00  -124.21
  -15.00    50.00       2.99    1.77    5.43    0.00000    40.98  LINEAR    1.34379E+00  -119.40    1.16735E+00  -119.40
  -10.00    50.00       3.37    1.98    5.74    0.00000    40.43  LINEAR    1.40376E+00  -114.47    1.19606E+00  -114.47
   -5.00    50.00       3.60    2.11    5.93    0.00000    40.11  LINEAR    1.44110E+00  -109.47    1.21384E+00  -109.47
    0.00    50.00       3.67    2.15    5.99    0.00000    40.00  LINEAR    1.45378E+00  -104.42    1.21987E+00  -104.42
 -180.00    55.00       4.26    1.16    5.99    0.00000   -35.00  LINEAR    1.55457E+00    75.58    1.08852E+00  -104.42
 -175.00    55.00       4.19    1.12    5.93    0.00000   -35.10  LINEAR    1.54199E+00    71.07    1.08384E+00  -108.93
 -170.00    55.00       3.97    1.01    5.75    0.00000   -35.41  LINEAR    1.50492E+00    66.61    1.07001E+00  -113.39
 -165.00    55.00       3.62    0.83    5.46    0.00000   -35.94  LINEAR    1.44526E+00    62.21    1.04768E+00  -117.79
 -160.00    55.00       3.13    0.58    5.05    0.00000   -36.69  LINEAR    1.36596E+00    57.92    1.01784E+00  -122.08
 -155.00    55.00       2.51    0.26    4.54    0.00000   -37.69  LINEAR    1.27078E+00    53.76    9.81793E-01  -126.24
 -150.00    55.00       1.74   -0.10    3.93    0.00000   -38.96  LINEAR    1.16389E+00    49.77    9.41040E-01  -130.23
 -145.00    55.00       0.84   -0.52    3.23    0.00000   -40.52  LINEAR    1.04959E+00    45.98    8.97183E-01  -134.02
 -140.00    55.00      -0.19   -0.97    2.45    0.00000   -42.43  LINEAR    9.31929E-01    42.42    8.51835E-01  -137.58
 -135.00    55.00      -1.36   -1.44    1.61    0.00000   -44.72  LINEAR    8.14487E-01    39.10    8.06540E-01  -140.90
 -130.00    55.00      -2.67   -1.93    0.73    0.00000   -47.45  LINEAR    7.00159E-01    36.07    7.62704E-01  -143.93
 -125.00    55.00      -4.14   -2.41   -0.18    0.00000   -50.68  LINEAR    5.91069E-01    33.34    7.21562E-01  -146.66
 -120.00    55.00      -5.80   -2.87   -1.08    0.00000   -54.47  LINEAR    4.88533E-01    30.93    6.84149E-01  -149.07
 -115.00    55.00      -7.69   -3.30   -1.95    0.00000   -58.89  LINEAR    3.93102E-01    28.85    6.51304E-01  -151.15
 -110.00    55.00      -9.90   -3.68   -2.75    0.00000   -63.97  LINEAR    3.04639E-01    27.14    6.23678E-01  -152.86
 -105.00    55.00     -12.63   -3.99   -3.43    0.00000   -69.71  LINEAR    2.22428E-01    25.79    6.01754E-01  -154.21
 -100.00    55.00     -16.33   -4.22   -3.96    0.00000   -76.07  LINEAR    1.45294E-01    24.82    5.85875E-01  -155.18
  -95.00    55.00     -22.46   -4.36   -4.30    0.00000   -82.90  LINEAR    7.17283E-02    24.23    5.76264E-01  -155.77
  -90.00    55.00    -999.99   -4.41   -4.41    0.00000   -90.00  LINEAR    4.17661E-12    24.04    5.73047E-01  -155.96
  -85.00    55.00     -22.46   -4.36   -4.30    0.00000    82.90  LINEAR    7.17283E-02  -155.77    5.76264E-01  -155.77
  -80.00    55.00     -16.33   -4.22   -3.96    0.00000    76.07  LINEAR    1.45294E-01  -155.18    5.85875E-01  -155.18
  -75.00    55.00     -12.63   -3.99   -3.43    0.00000    69.71  LINEAR    2.22428E-01  -154.21    6.01754E-01  -154.21
  -70.00    55.00      -9.90   -3.68   -2.75    0.00000    63.97  LINEAR    3.04639E-01  -152.86    6.23678E-01  -152.86
  -65.00    55.00      -7.69   -3.30   -1.95    0.00000    58.89  LINEAR    3.93102E-01  -151.15    6.51304E-01  -151.15
  -60.00    55.00      -5.80   -2.87   -1.08    0.00000    54.47  LINEAR    4.88533E-01  -149.07    6.84149E-01  -149.07
  -55.00    55.00      -4.14   -2.41   -0.18    0.00000    50.68  LINEAR    5.91069E-01  -146.66    7.21562E-01  -146.66
  -50.00    55.00      -2.67   -1.93    0.73    0.00000    47.45  LINEAR    7.00159E-01  -143.93    7.62704E-01  -143.93
  -45.00    55.00      -1.36   -1.44    1.61    0.00000    44.72  LINEAR    8.14487E-01  -140.90    8.06540E-01  -140.90
  -40.00    55.00      -0.19   -0.97    2.45    0.00000    42.43  LINEAR    9.31929E-01  -137.58    8.51835E-01  -137.58
  -35.00    55.00       0.84   -0.52    3.23    0.00000    40.52  LINEAR    1.04959E+00  -134.02    8.97183E-01  -134.02
  -30.00    55.00       1.74   -0.10    3.93    0.00000    38.96  LINEAR    1.16389E+00  -130.23    9.41040E-01  -130.23
  -25.00    55.00       2.51    0.26    4.54    0.00000    37.69  LINEAR    1.27078E+00  -126.24    9.81793E-01  -126.24
  -20.00    55.00       3.13    0.58    5.05    0.00000    36.69  LINEAR    1.36596E+00  -122.08    1.01784E+00  -122.08
  -15.00    55.00       3.62    0.83    5.46    0.00000    35.94  LINEAR    1.44526E+00  -117.79    1.04768E+00  -117.79
  -10.00    55.00       3.97    1.01    5.75    0.00000    35.41  LINEAR    1.50492E+00  -113.39    1.07001E+00  -113.39
   -5.00    55.00       4.19    1.12    5.93    0.00000    35.10  LINEAR    1.54199E+00  -108.93    1.08384E+00  -108.93
    0.00    55.00       4.26    1.16    5.99    0.00000    35.00  LINEAR    1.55457E+00  -104.42    1.08852E+00  -104.42
 -180.00    60.00       4.74   -0.03    5.99    0.00000   -30.00  LINEAR    1.64352E+00    75.58    9.48887E-01  -104.42
 -175.00    60.00       4.67   -0.06    5.93    0.00000   -30.09  LINEAR    1.63120E+00    71.65    9.45373E-01  -108.35
 -170.00    60.00       4.48   -0.16    5.76    0.00000   -30.38  LINEAR    1.59485E+00    67.76    9.34990E-01  -112.24
 -165.00    60.00       4.15   -0.32    5.48    0.00000   -30.87  LINEAR    1.53619E+00    63.93    9.18206E-01  -116.07
 -160.00    60.00       3.70   -0.53    5.09    0.00000   -31.57  LINEAR    1.45794E+00    60.19    8.95763E-01  -119.81
 -155.00    60.00       3.12   -0.80    4.60    0.00000   -32.50  LINEAR    1.36353E+00    56.57    8.68620E-01  -123.43
 -150.00    60.00       2.41   -1.11    4.01    0.00000   -33.69  LINEAR    1.25683E+00    53.09    8.37889E-01  -126.91
 -145.00    60.00       1.58   -1.46    3.33    0.00000   -35.18  LINEAR    1.14181E+00    49.79    8.04764E-01  -130.21
 -140.00    60.00       0.62   -1.84    2.57    0.00000   -37.00  LINEAR    1.02226E+00    46.68    7.70452E-01  -133.32
 -135.00    60.00      -0.48   -2.24    1.74    0.00000   -39.23  LINEAR    9.01551E-01    43.80    7.36113E-01  -136.20
 -130.00    60.00      -1.71   -2.64    0.86    0.00000   -41.93  LINEAR    7.82473E-01    41.15    7.02815E-01  -138.85
 -125.00    60.00      -3.09   -3.03   -0.05    0.00000   -45.19  LINEAR    6.67111E-01    38.77    6.71501E-01  -141.23
 -120.00    60.00      -4.66   -3.41   -0.98    0.00000   -49.11  LINEAR    5.56827E-01    36.67    6.42969E-01  -143.33
 -115.00    60.00      -6.47   -3.76   -1.89    0.00000   -53.80  LINEAR    4.52282E-01    34.87    6.17875E-01  -145.13
 -110.00    60.00      -8.61   -4.06   -2.75    0.00000   -59.36  LINEAR    3.53502E-01    33.38    5.96733E-01  -146.62
 -105.00    60.00     -11.28   -4.31   -3.51    0.00000   -65.85  LINEAR    2.59976E-01    32.20    5.79931E-01  -147.80
 -100.00    60.00     -14.93   -4.49   -4.12    0.00000   -73.26  LINEAR    1.70760E-01    31.36    5.67748E-01  -148.64
  -95.00    60.00     -21.03   -4.61   -4.51    0.00000   -81.42  LINEAR    8.45922E-02    30.85    5.60368E-01  -149.15
  -90.00    60.00    -999.99   -4.64   -4.64    0.00000   -90.00  LINEAR    4.93146E-12    30.68    5.57897E-01  -149.32
  -85.00    60.00     -21.03   -4.61   -4.51    0.00000    81.42  LINEAR    8.45922E-02  -149.15    5.60368E-01  -149.15
  -80.00    60.00     -14.93   -4.49   -4.12    0.00000    73.26  LINEAR    1.70760E-01  -148.64    5.67748E-01  -148.64
  -75.00    60.00     -11.28   -4.31   -3.51    0.00000    65.85  LINEAR    2.59976E-01  -147.80    5.79931E-01  -147.80
  -70.00    60.00      -8.61   -4.06   -2.75    0.00000    59.36  LINEAR    3.53502E-01  -146.62    5.96733E-01  -146.62
  -65.00    60.00      -6.47   -3.76   -1.89    0.00000    53.80  LINEAR    4.52282E-01  -145.13    6.17875E-01  -145.13
  -60.00    60.00      -4.66   -3.41   -0.98    0.00000    49.11  LINEAR    5.56827E-01  -143.33    6.42969E-01  -143.33
  -55.00    60.00      -3.09   -3.03   -0.05    0.00000    45.19  LINEAR    6.67111E-01  -141.23    6.71501E-01  -141.23
  -50.00    60.00      -1.71   -2.64    0.86    0.00000    41.93  LINEAR    7.82473E-01  -138.85    7.02815E-01  -138.85
  -45.00    60.00      -0.48   -2.24    1.74    0.00000    39.23  LINEAR    9.01551E-01  -136.20    7.36113E-01  -136.20
  -40.00    60.00       0.62   -1.84    2.57    0.00000    37.00  LINEAR    1.02226E+00  -133.32    7.70452E-01  -133.32
  -35.00    60.00       1.58   -1.46    3.33    0.00000    35.18  LINEAR    1.14181E+00  -130.21    8.04764E-01  -130.21
  -30.00    60.00       2.41   -1.11    4.01    0.00000    33.69  LINEAR    1.25683E+00  -126.91    8.37889E-01  -126.91
  -25.00    60.00       3.12   -0.80    4.60    0.00000    32.50  LINEAR    1.36353E+00  -123.43    8.68620E-01  -123.43
  -20.00    60.00       3.70   -0.53    5.09    0.00000    31.57  LINEAR    1.45794E+00  -119.81    8.95763E-01  -119.81
  -15.00    60.00       4.15   -0.32    5.48    0.00000    30.87  LINEAR    1.53619E+00  -116.07    9.18206E-01  -116.07
  -10.00    60.00       4.48   -0.16    5.76    0.00000    30.38  LINEAR    1.59485E+00  -112.24    9.34990E-01  -112.24
   -5.00    60.00       4.67   -0.06    5.93    0.00000    30.09  LINEAR    1.63120E+00  -108.35    9.45373E-01  -108.35
    0.00    60.00       4.74   -0.03    5.99    0.00000    30.00  LINEAR    1.64352E+00  -104.42    9.48887E-01  -104.42
 -180.00    65.00       5.13   -1.49    5.99    0.00000   -25.00  LINEAR    1.71997E+00    75.58    8.02034E-01  -104.42
 -175.00    65.00       5.07   -1.52    5.93    0.00000   -25.08  LINEAR    1.70800E+00    72.26    7.99496E-01  -107.74
 -170.00    65.00       4.89   -1.60    5.77    0.00000   -25.34  LINEAR    1.67263E+00    68.97    7.91995E-01  -111.03
 -165.00    65.00       4.59   -1.74    5.50    0.00000   -25.77  LINEAR    1.61543E+00    65.73    7.79860E-01  -114.27
 -160.00    65.00       4.17   -1.92    5.12    0.00000   -26.39  LINEAR    1.53882E+00    62.57    7.63614E-01  -117.43
 -155.00    65.00       3.63   -2.15    4.65    0.00000   -27.23  LINEAR    1.44591E+00    59.51    7.43938E-01  -120.49
 -150.00    65.00       2.97   -2.41    4.07    0.00000   -28.30  LINEAR    1.34019E+00    56.58    7.21620E-01  -123.42
 -145.00    65.00       2.19   -2.70    3.41    0.00000   -29.65  LINEAR    1.22531E+00    53.79    6.97514E-01  -126.21
 -140.00    65.00       1.29   -3.02    2.66    0.00000   -31.33  LINEAR    1.10475E+00    51.17    6.72488E-01  -128.83
 -135.00    65.00       0.26   -3.35    1.83    0.00000   -33.40  LINEAR    9.81686E-01    48.73    6.47381E-01  -131.27
 -130.00    65.00      -0.90   -3.69    0.94    0.00000   -35.96  LINEAR    8.58747E-01    46.50    6.22974E-01  -133.50
 -125.00    65.00      -2.21   -4.01   -0.01    0.00000   -39.11  LINEAR    7.37978E-01    44.49    5.99963E-01  -135.51
 -120.00    65.00      -3.72   -4.32   -1.00    0.00000   -43.00  LINEAR    6.20776E-01    42.72    5.78945E-01  -137.28
 -115.00    65.00      -5.46   -4.61   -2.00    0.00000   -47.81  LINEAR    5.07910E-01    41.20    5.60417E-01  -138.80
 -110.00    65.00      -7.54   -4.85   -2.98    0.00000   -53.74  LINEAR    3.99573E-01    39.94    5.44774E-01  -140.06
 -105.00    65.00     -10.17   -5.05   -3.89    0.00000   -60.97  LINEAR    2.95459E-01    38.95    5.32321E-01  -141.05
 -100.00    65.00     -13.78   -5.20   -4.64    0.00000   -69.58  LINEAR    1.94863E-01    38.23    5.23278E-01  -141.77
  -95.00    65.00     -19.86   -5.29   -5.14    0.00000   -79.41  LINEAR    9.67792E-02    37.80    5.17796E-01  -142.20
  -90.00    65.00    -999.99   -5.32   -5.32    0.00000   -90.00  LINEAR    5.64681E-12    37.66    5.15959E-01  -142.34
  -85.00    65.00     -19.86   -5.29   -5.14    0.00000    79.41  LINEAR    9.67792E-02  -142.20    5.17796E-01  -142.20
  -80.00    65.00     -13.78   -5.20   -4.64    0.00000    69.58  LINEAR    1.94863E-01  -141.77    5.23278E-01  -141.77
  -75.00    65.00     -10.17   -5.05   -3.89    0.00000    60.97  LINEAR    2.95459E-01  -141.05    5.32321E-01  -141.05
  -70.00    65.00      -7.54   -4.85   -2.98    0.00000    53.74  LINEAR    3.99573E-01  -140.06    5.44774E-01  -140.06
  -65.00    65.00      -5.46   -4.61   -2.00    0.00000    47.81  LINEAR    5.07910E-01  -138.80    5.60417E-01  -138.80
  -60.00    65.00      -3.72   -4.32   -1.00    0.00000    43.00  LINEAR    6.20776E-01  -137.28    5.78945E-01  -137.28
  -55.00    65.00      -2.21   -4.01   -0.01    0.00000    39.11  LINEAR    7.37978E-01  -135.51    5.99963E-01  -135.51
  -50.00    65.00      -0.90   -3.69    0.94    0.00000    35.96  LINEAR    8.58747E-01  -133.50    6.22974E-01  -133.50
  -45.00    65.00       0.26   -3.35    1.83    0.00000    33.40  LINEAR    9.81686E-01  -131.27    6.47381E-01  -131.27
  -40.00    65.00       1.29   -3.02    2.66    0.00000    31.33  LINEAR    1.10475E+00  -128.83    6.72488E-01  -128.83
  -35.00    65.00       2.19   -2.70    3.41    0.00000    29.65  LINEAR    1.22531E+00  -126.21    6.97514E-01  -126.21
  -30.00    65.00       2.97   -2.41    4.07    0.00000    28.30  LINEAR    1.34019E+00  -123.42    7.21620E-01  -123.42
  -25.00    65.00       3.63   -2.15    4.65    0.00000    27.23  LINEAR    1.44591E+00  -120.49    7.43938E-01  -120.49
  -20.00    65.00       4.17   -1.92    5.12    0.00000    26.39  LINEAR    1.53882E+00  -117.43    7.63614E-01  -117.43
  -15.00    65.00       4.59   -1.74    5.50    0.00000    25.77  LINEAR    1.61543E+00  -114.27    7.79860E-01  -114.27
  -10.00    65.00       4.89   -1.60    5.77    0.00000    25.34  LINEAR    1.67263E+00  -111.03    7.91995E-01  -111.03
   -5.00    65.00       5.07   -1.52    5.93    0.00000    25.08  LINEAR    1.70800E+00  -107.74    7.99496E-01  -107.74
    0.00    65.00       5.13   -1.49    5.99    0.00000    25.00  LINEAR    1.71997E+00  -104.42    8.02034E-01  -104.42
 -180.00    70.00       5.45   -3.33    5.99    0.00000   -20.00  LINEAR    1.78332E+00    75.58    6.49077E-01  -104.42
 -175.00    70.00       5.39   -3.35    5.94    0.00000   -20.07  LINEAR    1.77174E+00    72.89    6.47325E-01  -107.11
 -170.00    70.00       5.22   -3.42    5.78    0.00000   -20.28  LINEAR    1.73748E+00    70.23    6.42145E-01  -109.77
 -165.00    70.00       4.94   -3.54    5.52    0.00000   -20.65  LINEAR    1.68190E+00    67.61    6.33757E-01  -112.39
 -160.00    70.00       4.55   -3.69    5.15    0.00000   -21.17  LINEAR    1.60719E+00    65.06    6.22512E-01  -114.94
 -155.00    70.00       4.04   -3.89    4.69    0.00000   -21.88  LINEAR    1.51612E+00    62.58    6.08867E-01  -117.42
 -150.00    70.00       3.42   -4.11    4.13    0.00000   -22.80  LINEAR    1.41183E+00    60.21    5.93357E-01  -119.79
 -145.00    70.00       2.69   -4.36    3.47    0.00000   -23.96  LINEAR    1.29761E+00    57.96    5.76563E-01  -122.04
 -140.00    70.00       1.84   -4.63    2.72    0.00000   -25.41  LINEAR    1.17669E+00    55.84    5.59079E-01  -124.16
 -135.00    70.00       0.86   -4.90    1.89    0.00000   -27.24  LINEAR    1.05198E+00    53.87    5.41487E-01  -126.13
 -130.00    70.00      -0.24   -5.18    0.96    0.00000   -29.52  LINEAR    9.25998E-01    52.07    5.24335E-01  -127.93
 -125.00    70.00      -1.51   -5.46   -0.04    0.00000   -32.40  LINEAR    8.00730E-01    50.45    5.08114E-01  -129.55
 -120.00    70.00      -2.96   -5.71   -1.11    0.00000   -36.05  LINEAR    6.77602E-01    49.01    4.93254E-01  -130.99
 -115.00    70.00      -4.65   -5.95   -2.24    0.00000   -40.74  LINEAR    5.57482E-01    47.79    4.80119E-01  -132.21
 -110.00    70.00      -6.69   -6.15   -3.40    0.00000   -46.78  LINEAR    4.40717E-01    46.77    4.69002E-01  -133.23
 -105.00    70.00      -9.28   -6.32   -4.54    0.00000   -54.58  LINEAR    3.27200E-01    45.97    4.60133E-01  -134.03
 -100.00    70.00     -12.87   -6.44   -5.55    0.00000   -64.49  LINEAR    2.16449E-01    45.39    4.53682E-01  -134.61
  -95.00    70.00     -18.93   -6.52   -6.27    0.00000   -76.53  LINEAR    1.07700E-01    45.05    4.49767E-01  -134.95
[...]
  -70.00   340.00     -27.67   -9.57   -9.51    0.00000   -82.90  LINEAR    3.93720E-02    -3.93    3.16278E-01   176.07
  -65.00   340.00     -23.77   -7.51   -7.41    0.00000   -81.26  LINEAR    6.16682E-02    -1.11    4.00910E-01   178.89
  -60.00   340.00     -20.36   -5.56   -5.42    0.00000   -79.69  LINEAR    9.13667E-02     2.30    5.02056E-01  -177.70
  -55.00   340.00     -17.36   -3.76   -3.57    0.00000   -78.21  LINEAR    1.29001E-01     6.26    6.17924E-01  -173.74
  -50.00   340.00     -14.74   -2.12   -1.89    0.00000   -76.83  LINEAR    1.74553E-01    10.76    7.46094E-01  -169.24
  -45.00   340.00     -12.44   -0.65   -0.37    0.00000   -75.57  LINEAR    2.27372E-01    15.74    8.83458E-01  -164.26
  -40.00   340.00     -10.44    0.65    0.97    0.00000   -74.42  LINEAR    2.86124E-01    21.19    1.02620E+00  -158.81
  -35.00   340.00      -8.72    1.79    2.16    0.00000   -73.40  LINEAR    3.48795E-01    27.04    1.16988E+00  -152.96
  -30.00   340.00      -7.26    2.77    3.18    0.00000   -72.50  LINEAR    4.12764E-01    33.27    1.30950E+00  -146.73
  -25.00   340.00      -6.04    3.59    4.04    0.00000   -71.74  LINEAR    4.74944E-01    39.81    1.43980E+00  -140.19
  -20.00   340.00      -5.06    4.26    4.74    0.00000   -71.12  LINEAR    5.31999E-01    46.63    1.55546E+00  -133.37
  -15.00   340.00      -4.30    4.78    5.29    0.00000   -70.63  LINEAR    5.80612E-01    53.67    1.65149E+00  -126.33
  -10.00   340.00      -3.76    5.15    5.68    0.00000   -70.28  LINEAR    6.17784E-01    60.88    1.72353E+00  -119.12
   -5.00   340.00      -3.44    5.37    5.91    0.00000   -70.07  LINEAR    6.41120E-01    68.20    1.76819E+00  -111.80
    0.00   340.00      -3.33    5.45    5.99    0.00000   -70.00  LINEAR    6.49077E-01    75.58    1.78332E+00  -104.42
 -180.00   345.00      -5.75    5.69    5.99    0.00000    75.00  LINEAR    4.91180E-01  -104.42    1.83311E+00  -104.42
 -175.00   345.00      -5.86    5.61    5.91    0.00000    75.05  LINEAR    4.84974E-01  -112.01    1.81686E+00  -112.01
 -170.00   345.00      -6.19    5.38    5.67    0.00000    75.22  LINEAR    4.66778E-01  -119.53    1.76891E+00  -119.53
 -165.00   345.00      -6.75    4.99    5.27    0.00000    75.49  LINEAR    4.37811E-01  -126.94    1.69157E+00  -126.94
 -160.00   345.00      -7.54    4.44    4.71    0.00000    75.87  LINEAR    3.99963E-01  -134.18    1.58848E+00  -134.18
 -155.00   345.00      -8.56    3.74    3.99    0.00000    76.35  LINEAR    3.55601E-01  -141.19    1.46432E+00  -141.19
 -150.00   345.00      -9.82    2.87    3.09    0.00000    76.94  LINEAR    3.07343E-01  -147.92    1.32447E+00  -147.92
 -145.00   345.00     -11.35    1.82    2.03    0.00000    77.62  LINEAR    2.57821E-01  -154.32    1.17463E+00  -154.32
 -140.00   345.00     -13.15    0.60    0.78    0.00000    78.40  LINEAR    2.09464E-01  -160.34    1.02048E+00  -160.34
 -135.00   345.00     -15.26   -0.81   -0.66    0.00000    79.27  LINEAR    1.64337E-01  -165.93    8.67357E-01  -165.93
 -130.00   345.00     -17.71   -2.43   -2.30    0.00000    80.23  LINEAR    1.24018E-01  -171.06    7.20051E-01  -171.06
 -125.00   345.00     -20.53   -4.27   -4.17    0.00000    81.26  LINEAR    8.95468E-02  -175.68    5.82648E-01  -175.68
 -120.00   345.00     -23.81   -6.35   -6.27    0.00000    82.37  LINEAR    6.14242E-02  -179.75    4.58476E-01  -179.75
 -115.00   345.00     -27.61   -8.69   -8.64    0.00000    83.54  LINEAR    3.96476E-02   176.74    3.50119E-01   176.74
 -110.00   345.00     -32.05  -11.29  -11.26    0.00000    84.76  LINEAR    2.37803E-02   173.84    2.59485E-01   173.84
 -105.00   345.00     -37.28  -14.10  -14.08    0.00000    86.03  LINEAR    1.30315E-02   171.56    1.87909E-01   171.56
 -100.00   345.00     -43.53  -16.89  -16.88    0.00000    87.34  LINEAR    6.34041E-03   169.92    1.36268E-01   169.92
  -95.00   345.00     -51.78  -19.14  -19.14    0.00000    88.66  LINEAR    2.45438E-03   168.93    1.05098E-01   168.93
  -90.00   345.00    -999.99  -20.05  -20.05    0.00000    90.00  LINEAR    1.29469E-13   168.60    9.46789E-02   168.60
  -85.00   345.00     -51.78  -19.14  -19.14    0.00000   -88.66  LINEAR    2.45438E-03   -11.07    1.05098E-01   168.93
  -80.00   345.00     -43.53  -16.89  -16.88    0.00000   -87.34  LINEAR    6.34041E-03   -10.08    1.36268E-01   169.92
  -75.00   345.00     -37.28  -14.10  -14.08    0.00000   -86.03  LINEAR    1.30315E-02    -8.44    1.87909E-01   171.56
  -70.00   345.00     -32.05  -11.29  -11.26    0.00000   -84.76  LINEAR    2.37803E-02    -6.16    2.59485E-01   173.84
  -65.00   345.00     -27.61   -8.69   -8.64    0.00000   -83.54  LINEAR    3.96476E-02    -3.26    3.50119E-01   176.74
  -60.00   345.00     -23.81   -6.35   -6.27    0.00000   -82.37  LINEAR    6.14242E-02     0.25    4.58476E-01  -179.75
  -55.00   345.00     -20.53   -4.27   -4.17    0.00000   -81.26  LINEAR    8.95468E-02     4.32    5.82648E-01  -175.68
  -50.00   345.00     -17.71   -2.43   -2.30    0.00000   -80.23  LINEAR    1.24018E-01     8.94    7.20051E-01  -171.06
  -45.00   345.00     -15.26   -0.81   -0.66    0.00000   -79.27  LINEAR    1.64337E-01    14.07    8.67357E-01  -165.93
  -40.00   345.00     -13.15    0.60    0.78    0.00000   -78.40  LINEAR    2.09464E-01    19.66    1.02048E+00  -160.34
  -35.00   345.00     -11.35    1.82    2.03    0.00000   -77.62  LINEAR    2.57821E-01    25.68    1.17463E+00  -154.32
  -30.00   345.00      -9.82    2.87    3.09    0.00000   -76.94  LINEAR    3.07343E-01    32.08    1.32447E+00  -147.92
  -25.00   345.00      -8.56    3.74    3.99    0.00000   -76.35  LINEAR    3.55601E-01    38.81    1.46432E+00  -141.19
  -20.00   345.00      -7.54    4.44    4.71    0.00000   -75.87  LINEAR    3.99963E-01    45.82    1.58848E+00  -134.18
  -15.00   345.00      -6.75    4.99    5.27    0.00000   -75.49  LINEAR    4.37811E-01    53.06    1.69157E+00  -126.94
  -10.00   345.00      -6.19    5.38    5.67    0.00000   -75.22  LINEAR    4.66778E-01    60.47    1.76891E+00  -119.53
   -5.00   345.00      -5.86    5.61    5.91    0.00000   -75.05  LINEAR    4.84974E-01    67.99    1.81686E+00  -112.01
    0.00   345.00      -5.75    5.69    5.99    0.00000   -75.00  LINEAR    4.91180E-01    75.58    1.83311E+00  -104.42
 -180.00   350.00      -9.22    5.86    5.99    0.00000    80.00  LINEAR    3.29545E-01  -104.42    1.86894E+00  -104.42
 -175.00   350.00      -9.33    5.78    5.91    0.00000    80.04  LINEAR    3.25290E-01  -112.15    1.85186E+00  -112.15
 -170.00   350.00      -9.67    5.54    5.67    0.00000    80.15  LINEAR    3.12816E-01  -119.83    1.80144E+00  -119.83
 -165.00   350.00     -10.24    5.14    5.26    0.00000    80.33  LINEAR    2.92967E-01  -127.38    1.72011E+00  -127.38
 -160.00   350.00     -11.04    4.57    4.69    0.00000    80.59  LINEAR    2.67049E-01  -134.76    1.61171E+00  -134.76
 -155.00   350.00     -12.09    3.84    3.95    0.00000    80.92  LINEAR    2.36700E-01  -141.91    1.48116E+00  -141.91
 -150.00   350.00     -13.39    2.93    3.03    0.00000    81.32  LINEAR    2.03727E-01  -148.77    1.33413E+00  -148.77
 -145.00   350.00     -14.97    1.84    1.93    0.00000    81.78  LINEAR    1.69949E-01  -155.29    1.17662E+00  -155.29
 -140.00   350.00     -16.84    0.55    0.63    0.00000    82.31  LINEAR    1.37046E-01  -161.43    1.01459E+00  -161.43
 -135.00   350.00     -19.03   -0.95   -0.88    0.00000    82.89  LINEAR    1.06438E-01  -167.14    8.53679E-01  -167.14
 -130.00   350.00     -21.60   -2.69   -2.63    0.00000    83.53  LINEAR    7.92147E-02  -172.36    6.98907E-01  -172.36
 -125.00   350.00     -24.60   -4.70   -4.65    0.00000    84.22  LINEAR    5.60879E-02  -177.07    5.54574E-01  -177.07
 -120.00   350.00     -28.12   -7.02   -6.99    0.00000    84.96  LINEAR    3.73965E-02   178.77    4.24172E-01   178.77
 -115.00   350.00     -32.29   -9.74   -9.71    0.00000    85.74  LINEAR    2.31313E-02   175.20    3.10408E-01   175.20
 -110.00   350.00     -37.31  -12.92  -12.90    0.00000    86.55  LINEAR    1.29827E-02   172.24    2.15276E-01   172.24
 -105.00   350.00     -43.46  -16.64  -16.63    0.00000    87.39  LINEAR    6.39668E-03   169.91    1.40165E-01   169.91
 -100.00   350.00     -51.17  -20.89  -20.88    0.00000    88.25  LINEAR    2.63276E-03   168.24    8.59849E-02   168.24
  -95.00   350.00     -61.31  -25.04  -25.04    0.00000    89.12  LINEAR    8.18901E-04   167.23    5.32864E-02   167.23
  -90.00   350.00    -999.99  -27.04  -27.04    0.00000    90.00  LINEAR    3.81161E-14   166.89    4.23574E-02   166.89
  -85.00   350.00     -61.31  -25.04  -25.04    0.00000   -89.12  LINEAR    8.18901E-04   -12.77    5.32864E-02   167.23
  -80.00   350.00     -51.17  -20.89  -20.88    0.00000   -88.25  LINEAR    2.63276E-03   -11.76    8.59849E-02   168.24
  -75.00   350.00     -43.46  -16.64  -16.63    0.00000   -87.39  LINEAR    6.39668E-03   -10.09    1.40165E-01   169.91
  -70.00   350.00     -37.31  -12.92  -12.90    0.00000   -86.55  LINEAR    1.29827E-02    -7.76    2.15276E-01   172.24
  -65.00   350.00     -32.29   -9.74   -9.71    0.00000   -85.74  LINEAR    2.31313E-02    -4.80    3.10408E-01   175.20
  -60.00   350.00     -28.12   -7.02   -6.99    0.00000   -84.96  LINEAR    3.73965E-02    -1.23    4.24172E-01   178.77
  -55.00   350.00     -24.60   -4.70   -4.65    0.00000   -84.22  LINEAR    5.60879E-02     2.93    5.54574E-01  -177.07
  -50.00   350.00     -21.60   -2.69   -2.63    0.00000   -83.53  LINEAR    7.92147E-02     7.64    6.98907E-01  -172.36
  -45.00   350.00     -19.03   -0.95   -0.88    0.00000   -82.89  LINEAR    1.06438E-01    12.86    8.53679E-01  -167.14
  -40.00   350.00     -16.84    0.55    0.63    0.00000   -82.31  LINEAR    1.37046E-01    18.57    1.01459E+00  -161.43
  -35.00   350.00     -14.97    1.84    1.93    0.00000   -81.78  LINEAR    1.69949E-01    24.71    1.17662E+00  -155.29
  -30.00   350.00     -13.39    2.93    3.03    0.00000   -81.32  LINEAR    2.03727E-01    31.23    1.33413E+00  -148.77
  -25.00   350.00     -12.09    3.84    3.95    0.00000   -80.92  LINEAR    2.36700E-01    38.09    1.48116E+00  -141.91
  -20.00   350.00     -11.04    4.57    4.69    0.00000   -80.59  LINEAR    2.67049E-01    45.24    1.61171E+00  -134.76
  -15.00   350.00     -10.24    5.14    5.26    0.00000   -80.33  LINEAR    2.92967E-01    52.62    1.72011E+00  -127.38
  -10.00   350.00      -9.67    5.54    5.67    0.00000   -80.15  LINEAR    3.12816E-01    60.17    1.80144E+00  -119.83
   -5.00   350.00      -9.33    5.78    5.91    0.00000   -80.04  LINEAR    3.25290E-01    67.85    1.85186E+00  -112.15
    0.00   350.00      -9.22    5.86    5.99    0.00000   -80.00  LINEAR    3.29545E-01    75.58    1.86894E+00  -104.42
 -180.00   355.00     -15.20    5.96    5.99    0.00000    85.00  LINEAR    1.65402E-01  -104.42    1.89055E+00  -104.42
 -175.00   355.00     -15.32    5.87    5.91    0.00000    85.02  LINEAR    1.63238E-01  -112.24    1.87295E+00  -112.24
 -170.00   355.00     -15.66    5.63    5.66    0.00000    85.08  LINEAR    1.56896E-01  -120.00    1.82099E+00  -120.00
 -165.00   355.00     -16.24    5.22    5.25    0.00000    85.17  LINEAR    1.46806E-01  -127.64    1.73719E+00  -127.64
 -160.00   355.00     -17.06    4.64    4.67    0.00000    85.30  LINEAR    1.33636E-01  -135.11    1.62550E+00  -135.11
 -155.00   355.00     -18.12    3.89    3.92    0.00000    85.47  LINEAR    1.18223E-01  -142.34    1.49099E+00  -142.34
 -150.00   355.00     -19.45    2.96    2.99    0.00000    85.67  LINEAR    1.01491E-01  -149.28    1.33951E+00  -149.28
 -145.00   355.00     -21.05    1.84    1.86    0.00000    85.90  LINEAR    8.43680E-02  -155.88    1.17723E+00  -155.88
 -140.00   355.00     -22.96    0.51    0.53    0.00000    86.17  LINEAR    6.77118E-02  -162.09    1.01032E+00  -162.09
 -135.00   355.00     -25.21   -1.04   -1.03    0.00000    86.46  LINEAR    5.22483E-02  -167.86    8.44569E-01  -167.86
 -130.00   355.00     -27.86   -2.86   -2.85    0.00000    86.78  LINEAR    3.85315E-02  -173.15    6.85167E-01  -173.15
 -125.00   355.00     -30.97   -4.98   -4.97    0.00000    87.13  LINEAR    2.69242E-02  -177.92    5.36537E-01  -177.92
 -120.00   355.00     -34.67   -7.49   -7.48    0.00000    87.50  LINEAR    1.75972E-02   177.88    4.02274E-01   177.88
 -115.00   355.00     -39.12  -10.47  -10.47    0.00000    87.88  LINEAR    1.05436E-02   174.27    2.85162E-01   174.27
 -110.00   355.00     -44.61  -14.13  -14.12    0.00000    88.29  LINEAR    5.60289E-03   171.27    1.87244E-01   171.27
 -105.00   355.00     -51.65  -18.75  -18.75    0.00000    88.70  LINEAR    2.48958E-03   168.92    1.09946E-01   168.92
 -100.00   355.00     -61.26  -24.90  -24.90    0.00000    89.13  LINEAR    8.23336E-04   167.22    5.41945E-02   167.22
  -95.00   355.00     -75.67  -33.32  -33.32    0.00000    89.56  LINEAR    1.56702E-04   166.20    2.05507E-02   166.20
  -90.00   355.00    -999.99  -40.20  -40.20    0.00000    90.00  LINEAR    4.15515E-15   165.86    9.30623E-03   165.86
  -85.00   355.00     -75.67  -33.32  -33.32    0.00000   -89.56  LINEAR    1.56702E-04   -13.80    2.05507E-02   166.20
  -80.00   355.00     -61.26  -24.90  -24.90    0.00000   -89.13  LINEAR    8.23336E-04   -12.78    5.41945E-02   167.22
  -75.00   355.00     -51.65  -18.75  -18.75    0.00000   -88.70  LINEAR    2.48958E-03   -11.08    1.09946E-01   168.92
  -70.00   355.00     -44.61  -14.13  -14.12    0.00000   -88.29  LINEAR    5.60289E-03    -8.73    1.87244E-01   171.27
  -65.00   355.00     -39.12  -10.47  -10.47    0.00000   -87.88  LINEAR    1.05436E-02    -5.73    2.85162E-01   174.27
  -60.00   355.00     -34.67   -7.49   -7.48    0.00000   -87.50  LINEAR    1.75972E-02    -2.12    4.02274E-01   177.88
  -55.00   355.00     -30.97   -4.98   -4.97    0.00000   -87.13  LINEAR    2.69242E-02     2.08    5.36537E-01  -177.92
  -50.00   355.00     -27.86   -2.86   -2.85    0.00000   -86.78  LINEAR    3.85315E-02     6.85    6.85167E-01  -173.15
  -45.00   355.00     -25.21   -1.04   -1.03    0.00000   -86.46  LINEAR    5.22483E-02    12.14    8.44569E-01  -167.86
  -40.00   355.00     -22.96    0.51    0.53    0.00000   -86.17  LINEAR    6.77118E-02    17.91    1.01032E+00  -162.09
  -35.00   355.00     -21.05    1.84    1.86    0.00000   -85.90  LINEAR    8.43680E-02    24.12    1.17723E+00  -155.88
  -30.00   355.00     -19.45    2.96    2.99    0.00000   -85.67  LINEAR    1.01491E-01    30.72    1.33951E+00  -149.28
  -25.00   355.00     -18.12    3.89    3.92    0.00000   -85.47  LINEAR    1.18223E-01    37.66    1.49099E+00  -142.34
  -20.00   355.00     -17.06    4.64    4.67    0.00000   -85.30  LINEAR    1.33636E-01    44.89    1.62550E+00  -135.11
  -15.00   355.00     -16.24    5.22    5.25    0.00000   -85.17  LINEAR    1.46806E-01    52.36    1.73719E+00  -127.64
  -10.00   355.00     -15.66    5.63    5.66    0.00000   -85.08  LINEAR    1.56896E-01    60.00    1.82099E+00  -120.00
   -5.00   355.00     -15.32    5.87    5.91    0.00000   -85.02  LINEAR    1.63238E-01    67.76    1.87295E+00  -112.24
    0.00   355.00     -15.20    5.96    5.99    0.00000   -85.00  LINEAR    1.65402E-01    75.58    1.89055E+00  -104.42
 -180.00   360.00    -999.99    5.99    5.99    0.00000   -90.00  LINEAR    3.87405E-11    75.58    1.89777E+00  -104.42
 -175.00   360.00    -999.99    5.91    5.91    0.00000   -90.00  LINEAR    3.82315E-11    67.73    1.87999E+00  -112.27
 -170.00   360.00    -999.99    5.66    5.66    0.00000   -90.00  LINEAR    3.67396E-11    59.94    1.82752E+00  -120.06
 -165.00   360.00    -999.99    5.25    5.25    0.00000   -90.00  LINEAR    3.43663E-11    52.27    1.74288E+00  -127.73
 -160.00   360.00    -999.99    4.67    4.67    0.00000   -90.00  LINEAR    3.12689E-11    44.77    1.63007E+00  -135.23
 -155.00   360.00    -999.99    3.91    3.91    0.00000   -90.00  LINEAR    2.76446E-11    37.51    1.49422E+00  -142.49
 -150.00   360.00    -999.99    2.97    2.97    0.00000   -90.00  LINEAR    2.37112E-11    30.55    1.34122E+00  -149.45
 -145.00   360.00    -999.99    1.84    1.84    0.00000   -90.00  LINEAR    1.96872E-11    23.92    1.17733E+00  -156.08
 -140.00   360.00    -999.99    0.50    0.50    0.00000   -90.00  LINEAR    1.57749E-11    17.69    1.00877E+00  -162.31
 -135.00   360.00    -999.99   -1.08   -1.08    0.00000   -90.00  LINEAR    1.21450E-11    11.89    8.41379E-01  -168.11
 -130.00   360.00    -999.99   -2.92   -2.92    0.00000   -90.00  LINEAR    8.92807E-12     6.59    6.80408E-01  -173.41
 -125.00   360.00    -999.99   -5.08   -5.08    0.00000   -90.00  LINEAR    6.20943E-12     1.80    5.30322E-01  -178.20
 -120.00   360.00    -999.99   -7.65   -7.65    0.00000   -90.00  LINEAR    4.02916E-12    -2.42    3.94751E-01   177.58
 -115.00   360.00    -999.99  -10.74  -10.74    0.00000   -90.00  LINEAR    2.38545E-12    -6.05    2.76505E-01   173.95
 -110.00   360.00    -999.99  -14.58  -14.58    0.00000   -90.00  LINEAR    1.24029E-12    -9.05    1.77645E-01   170.95
 -105.00   360.00    -999.99  -19.61  -19.61    0.00000   -90.00  LINEAR    5.26259E-13   -11.42    9.96053E-02   168.58
 -100.00   360.00    -999.99  -26.84  -26.84    0.00000   -90.00  LINEAR    1.53569E-13   -13.12    4.33224E-02   166.88
  -95.00   360.00    -999.99  -40.15  -40.15    0.00000   -90.00  LINEAR    1.66508E-14   -14.14    9.35877E-03   165.86
  -90.00   360.00    -999.99  -53.59  -53.59    0.00000   -90.00  LINEAR    2.07571E-25   165.52    1.99244E-03   -14.48
  -85.00   360.00    -999.99  -40.15  -40.15    0.00000    90.00  LINEAR    1.66508E-14   165.86    9.35877E-03   165.86
  -80.00   360.00    -999.99  -26.84  -26.84    0.00000    90.00  LINEAR    1.53569E-13   166.88    4.33224E-02   166.88
  -75.00   360.00    -999.99  -19.61  -19.61    0.00000    90.00  LINEAR    5.26259E-13   168.58    9.96053E-02   168.58
  -70.00   360.00    -999.99  -14.58  -14.58    0.00000    90.00  LINEAR    1.24029E-12   170.95    1.77645E-01   170.95
  -65.00   360.00    -999.99  -10.74  -10.74    0.00000    90.00  LINEAR    2.38545E-12   173.95    2.76505E-01   173.95
  -60.00   360.00    -999.99   -7.65   -7.65    0.00000    90.00  LINEAR    4.02916E-12   177.58    3.94751E-01   177.58
  -55.00   360.00    -999.99   -5.08   -5.08    0.00000    90.00  LINEAR    6.20943E-12  -178.20    5.30322E-01  -178.20
  -50.00   360.00    -999.99   -2.92   -2.92    0.00000    90.00  LINEAR    8.92807E-12  -173.41    6.80408E-01  -173.41
  -45.00   360.00    -999.99   -1.08   -1.08    0.00000    90.00  LINEAR    1.21450E-11  -168.11    8.41379E-01  -168.11
  -40.00   360.00    -999.99    0.50    0.50    0.00000    90.00  LINEAR    1.57749E-11  -162.31    1.00877E+00  -162.31
  -35.00   360.00    -999.99    1.84    1.84    0.00000    90.00  LINEAR    1.96872E-11  -156.08    1.17733E+00  -156.08
  -30.00   360.00    -999.99    2.97    2.97    0.00000    90.00  LINEAR    2.37112E-11  -149.45    1.34122E+00  -149.45
  -25.00   360.00    -999.99    3.91    3.91    0.00000    90.00  LINEAR    2.76446E-11  -142.49    1.49422E+00  -142.49
  -20.00   360.00    -999.99    4.67    4.67    0.00000    90.00  LINEAR    3.12689E-11  -135.23    1.63007E+00  -135.23
  -15.00   360.00    -999.99    5.25    5.25    0.00000    90.00  LINEAR    3.43663E-11  -127.73    1.74288E+00  -127.73
  -10.00   360.00    -999.99    5.66    5.66    0.00000    90.00  LINEAR    3.67396E-11  -120.06    1.82752E+00  -120.06
   -5.00   360.00    -999.99    5.91    5.91    0.00000    90.00  LINEAR    3.82315E-11  -112.27    1.87999E+00  -112.27
    0.00   360.00    -999.99    5.99    5.99    0.00000    90.00  LINEAR    3.87405E-11  -104.42    1.89777E+00  -104.42


   AVERAGE POWER GAIN= 1.00020E+00       SOLID ANGLE USED IN AVERAGING=( 4.0000)*PI STERADIANS.








 ***** DATA CARD NO.  8   EN   0    37    73  1003 -1.80000E+02  0.00000E+00  5.00000E+00  5.00000E+00  0.00000E+00  0.00000E+00

 RUN TIME =     0.219
