1



                                 *********************************************

                                    NUMERICAL ELECTROMAGNETICS CODE (NEC-2D)

                                 *********************************************




                                     - - - - COMMENTS - - - -


                                                                                                     
                          forw:-999, 0 ; back: 0, 0                                                  
                                                                                                     




                                 - - - STRUCTURE SPECIFICATION - - -

                                     COORDINATES MUST BE INPUT IN
                                     METERS OR BE SCALED TO METERS
                                     BEFORE STRUCTURE INPUT IS ENDED


  WIRE                                                                               NO. OF    FIRST  LAST     TAG
  NO.        X1         Y1         Z1          X2         Y2         Z2      RADIUS   SEG.     SEG.   SEG.     NO.
     1    0.00000    0.00000   -0.17430     0.00000    0.00000    0.17430    0.00010      9        1     9       1
     2    0.00000    0.34860   -0.17430     0.00000    0.34860    0.17430    0.00010      9       10    18       2
     3    0.00000    0.69719   -0.17430     0.00000    0.69719    0.17430    0.00010      9       19    27       3
     4    0.00000    1.04579   -0.17430     0.00000    1.04579    0.17430    0.00010      9       28    36       4
     5    0.00000    1.39438   -0.17430     0.00000    1.39438    0.17430    0.00010      9       37    45       5
     6    0.00000    1.74298   -0.17430     0.00000    1.74298    0.17430    0.00010      9       46    54       6
     7    0.00000    2.09158   -0.17430     0.00000    2.09158    0.17430    0.00010      9       55    63       7
     8    0.00000    2.44017   -0.17430     0.00000    2.44017    0.17430    0.00010      9       64    72       8
     9    0.00000    2.78877   -0.17430     0.00000    2.78877    0.17430    0.00010      9       73    81       9
    10    0.00000    3.13736   -0.17430     0.00000    3.13736    0.17430    0.00010      9       82    90      10
    11    0.00000    3.48596   -0.17430     0.00000    3.48596    0.17430    0.00010      9       91    99      11
    12    0.00000    3.83455   -0.17430     0.00000    3.83455    0.17430    0.00010      9      100   108      12
    13    0.00000    4.18315   -0.17430     0.00000    4.18315    0.17430    0.00010      9      109   117      13
    14    0.00000    4.53175   -0.17430     0.00000    4.53175    0.17430    0.00010      9      118   126      14
    15    0.00000    4.88034   -0.17430     0.00000    4.88034    0.17430    0.00010      9      127   135      15
    16    0.00000    5.22894   -0.17430     0.00000    5.22894    0.17430    0.00010      9      136   144      16
    17    0.00000    5.57753   -0.17430     0.00000    5.57753    0.17430    0.00010      9      145   153      17
    18    0.00000    5.92613   -0.17430     0.00000    5.92613    0.17430    0.00010      9      154   162      18
    19    0.00000    6.27473   -0.17430     0.00000    6.27473    0.17430    0.00010      9      163   171      19
    20    0.00000    6.62332   -0.17430     0.00000    6.62332    0.17430    0.00010      9      172   180      20

   TOTAL SEGMENTS USED=  180     NO. SEG. IN A SYMMETRIC CELL=  180     SYMMETRY FLAG=  0


         - MULTIPLE WIRE JUNCTIONS -
 JUNCTION    SEGMENTS  (- FOR END 1, + FOR END 2)
  NONE




                                 - - - - SEGMENTATION DATA - - - -

                                        COORDINATES IN METERS

                         I+ AND I- INDICATE THE SEGMENTS BEFORE AND AFTER I


  SEG.   COORDINATES OF SEG. CENTER     SEG.     ORIENTATION ANGLES    WIRE    CONNECTION DATA   TAG
  NO.       X         Y         Z       LENGTH     ALPHA     BETA      RADIUS    I-   I    I+    NO.
     1   0.00000   0.00000  -0.15493   0.03873   90.00000   0.00000   0.00010     0    1    2      1
     2   0.00000   0.00000  -0.11620   0.03873   90.00000   0.00000   0.00010     1    2    3      1
     3   0.00000   0.00000  -0.07747   0.03873   90.00000   0.00000   0.00010     2    3    4      1
     4   0.00000   0.00000  -0.03873   0.03873   90.00000   0.00000   0.00010     3    4    5      1
     5   0.00000   0.00000   0.00000   0.03873   90.00000   0.00000   0.00010     4    5    6      1
     6   0.00000   0.00000   0.03873   0.03873   90.00000   0.00000   0.00010     5    6    7      1
     7   0.00000   0.00000   0.07747   0.03873   90.00000   0.00000   0.00010     6    7    8      1
     8   0.00000   0.00000   0.11620   0.03873   90.00000   0.00000   0.00010     7    8    9      1
     9   0.00000   0.00000   0.15493   0.03873   90.00000   0.00000   0.00010     8    9    0      1
    10   0.00000   0.34860  -0.15493   0.03873   90.00000   0.00000   0.00010     0   10   11      2
    11   0.00000   0.34860  -0.11620   0.03873   90.00000   0.00000   0.00010    10   11   12      2
    12   0.00000   0.34860  -0.07747   0.03873   90.00000   0.00000   0.00010    11   12   13      2
    13   0.00000   0.34860  -0.03873   0.03873   90.00000   0.00000   0.00010    12   13   14      2
    14   0.00000   0.34860   0.00000   0.03873   90.00000   0.00000   0.00010    13   14   15      2
    15   0.00000   0.34860   0.03873   0.03873   90.00000   0.00000   0.00010    14   15   16      2
    16   0.00000   0.34860   0.07747   0.03873   90.00000   0.00000   0.00010    15   16   17      2
    17   0.00000   0.34860   0.11620   0.03873   90.00000   0.00000   0.00010    16   17   18      2
    18   0.00000   0.34860   0.15493   0.03873   90.00000   0.00000   0.00010    17   18    0      2
    19   0.00000   0.69719  -0.15493   0.03873   90.00000   0.00000   0.00010     0   19   20      3
    20   0.00000   0.69719  -0.11620   0.03873   90.00000   0.00000   0.00010    19   20   21      3
    21   0.00000   0.69719  -0.07747   0.03873   90.00000   0.00000   0.00010    20   21   22      3
    22   0.00000   0.69719  -0.03873   0.03873   90.00000   0.00000   0.00010    21   22   23      3
    23   0.00000   0.69719   0.00000   0.03873   90.00000   0.00000   0.00010    22   23   24      3
    24   0.00000   0.69719   0.03873   0.03873   90.00000   0.00000   0.00010    23   24   25      3
    25   0.00000   0.69719   0.07747   0.03873   90.00000   0.00000   0.00010    24   25   26      3
    26   0.00000   0.69719   0.11620   0.03873   90.00000   0.00000   0.00010    25   26   27      3
    27   0.00000   0.69719   0.15493   0.03873   90.00000   0.00000   0.00010    26   27    0      3
    28   0.00000   1.04579  -0.15493   0.03873   90.00000   0.00000   0.00010     0   28   29      4
    29   0.00000   1.04579  -0.11620   0.03873   90.00000   0.00000   0.00010    28   29   30      4
    30   0.00000   1.04579  -0.07747   0.03873   90.00000   0.00000   0.00010    29   30   31      4
    31   0.00000   1.04579  -0.03873   0.03873   90.00000   0.00000   0.00010    30   31   32      4
    32   0.00000   1.04579   0.00000   0.03873   90.00000   0.00000   0.00010    31   32   33      4
    33   0.00000   1.04579   0.03873   0.03873   90.00000   0.00000   0.00010    32   33   34      4
    34   0.00000   1.04579   0.07747   0.03873   90.00000   0.00000   0.00010    33   34   35      4
    35   0.00000   1.04579   0.11620   0.03873   90.00000   0.00000   0.00010    34   35   36      4
    36   0.00000   1.04579   0.15493   0.03873   90.00000   0.00000   0.00010    35   36    0      4
    37   0.00000   1.39438  -0.15493   0.03873   90.00000   0.00000   0.00010     0   37   38      5
    38   0.00000   1.39438  -0.11620   0.03873   90.00000   0.00000   0.00010    37   38   39      5
    39   0.00000   1.39438  -0.07747   0.03873   90.00000   0.00000   0.00010    38   39   40      5
    40   0.00000   1.39438  -0.03873   0.03873   90.00000   0.00000   0.00010    39   40   41      5
    41   0.00000   1.39438   0.00000   0.03873   90.00000   0.00000   0.00010    40   41   42      5
    42   0.00000   1.39438   0.03873   0.03873   90.00000   0.00000   0.00010    41   42   43      5
    43   0.00000   1.39438   0.07747   0.03873   90.00000   0.00000   0.00010    42   43   44      5
    44   0.00000   1.39438   0.11620   0.03873   90.00000   0.00000   0.00010    43   44   45      5
    45   0.00000   1.39438   0.15493   0.03873   90.00000   0.00000   0.00010    44   45    0      5
    46   0.00000   1.74298  -0.15493   0.03873   90.00000   0.00000   0.00010     0   46   47      6
    47   0.00000   1.74298  -0.11620   0.03873   90.00000   0.00000   0.00010    46   47   48      6
    48   0.00000   1.74298  -0.07747   0.03873   90.00000   0.00000   0.00010    47   48   49      6
    49   0.00000   1.74298  -0.03873   0.03873   90.00000   0.00000   0.00010    48   49   50      6
    50   0.00000   1.74298   0.00000   0.03873   90.00000   0.00000   0.00010    49   50   51      6
    51   0.00000   1.74298   0.03873   0.03873   90.00000   0.00000   0.00010    50   51   52      6
    52   0.00000   1.74298   0.07747   0.03873   90.00000   0.00000   0.00010    51   52   53      6
    53   0.00000   1.74298   0.11620   0.03873   90.00000   0.00000   0.00010    52   53   54      6
    54   0.00000   1.74298   0.15493   0.03873   90.00000   0.00000   0.00010    53   54    0      6
    55   0.00000   2.09158  -0.15493   0.03873   90.00000   0.00000   0.00010     0   55   56      7
    56   0.00000   2.09158  -0.11620   0.03873   90.00000   0.00000   0.00010    55   56   57      7
    57   0.00000   2.09158  -0.07747   0.03873   90.00000   0.00000   0.00010    56   57   58      7
    58   0.00000   2.09158  -0.03873   0.03873   90.00000   0.00000   0.00010    57   58   59      7
    59   0.00000   2.09158   0.00000   0.03873   90.00000   0.00000   0.00010    58   59   60      7
    60   0.00000   2.09158   0.03873   0.03873   90.00000   0.00000   0.00010    59   60   61      7
    61   0.00000   2.09158   0.07747   0.03873   90.00000   0.00000   0.00010    60   61   62      7
    62   0.00000   2.09158   0.11620   0.03873   90.00000   0.00000   0.00010    61   62   63      7
    63   0.00000   2.09158   0.15493   0.03873   90.00000   0.00000   0.00010    62   63    0      7
    64   0.00000   2.44017  -0.15493   0.03873   90.00000   0.00000   0.00010     0   64   65      8
    65   0.00000   2.44017  -0.11620   0.03873   90.00000   0.00000   0.00010    64   65   66      8
    66   0.00000   2.44017  -0.07747   0.03873   90.00000   0.00000   0.00010    65   66   67      8
    67   0.00000   2.44017  -0.03873   0.03873   90.00000   0.00000   0.00010    66   67   68      8
    68   0.00000   2.44017   0.00000   0.03873   90.00000   0.00000   0.00010    67   68   69      8
    69   0.00000   2.44017   0.03873   0.03873   90.00000   0.00000   0.00010    68   69   70      8
    70   0.00000   2.44017   0.07747   0.03873   90.00000   0.00000   0.00010    69   70   71      8
    71   0.00000   2.44017   0.11620   0.03873   90.00000   0.00000   0.00010    70   71   72      8
    72   0.00000   2.44017   0.15493   0.03873   90.00000   0.00000   0.00010    71   72    0      8
    73   0.00000   2.78877  -0.15493   0.03873   90.00000   0.00000   0.00010     0   73   74      9
    74   0.00000   2.78877  -0.11620   0.03873   90.00000   0.00000   0.00010    73   74   75      9
    75   0.00000   2.78877  -0.07747   0.03873   90.00000   0.00000   0.00010    74   75   76      9
    76   0.00000   2.78877  -0.03873   0.03873   90.00000   0.00000   0.00010    75   76   77      9
    77   0.00000   2.78877   0.00000   0.03873   90.00000   0.00000   0.00010    76   77   78      9
    78   0.00000   2.78877   0.03873   0.03873   90.00000   0.00000   0.00010    77   78   79      9
    79   0.00000   2.78877   0.07747   0.03873   90.00000   0.00000   0.00010    78   79   80      9
    80   0.00000   2.78877   0.11620   0.03873   90.00000   0.00000   0.00010    79   80   81      9
    81   0.00000   2.78877   0.15493   0.03873   90.00000   0.00000   0.00010    80   81    0      9
    82   0.00000   3.13736  -0.15493   0.03873   90.00000   0.00000   0.00010     0   82   83     10
    83   0.00000   3.13736  -0.11620   0.03873   90.00000   0.00000   0.00010    82   83   84     10
    84   0.00000   3.13736  -0.07747   0.03873   90.00000   0.00000   0.00010    83   84   85     10
    85   0.00000   3.13736  -0.03873   0.03873   90.00000   0.00000   0.00010    84   85   86     10
    86   0.00000   3.13736   0.00000   0.03873   90.00000   0.00000   0.00010    85   86   87     10
    87   0.00000   3.13736   0.03873   0.03873   90.00000   0.00000   0.00010    86   87   88     10
    88   0.00000   3.13736   0.07747   0.03873   90.00000   0.00000   0.00010    87   88   89     10
    89   0.00000   3.13736   0.11620   0.03873   90.00000   0.00000   0.00010    88   89   90     10
    90   0.00000   3.13736   0.15493   0.03873   90.00000   0.00000   0.00010    89   90    0     10
    91   0.00000   3.48596  -0.15493   0.03873   90.00000   0.00000   0.00010     0   91   92     11
    92   0.00000   3.48596  -0.11620   0.03873   90.00000   0.00000   0.00010    91   92   93     11
    93   0.00000   3.48596  -0.07747   0.03873   90.00000   0.00000   0.00010    92   93   94     11
    94   0.00000   3.48596  -0.03873   0.03873   90.00000   0.00000   0.00010    93   94   95     11
    95   0.00000   3.48596   0.00000   0.03873   90.00000   0.00000   0.00010    94   95   96     11
    96   0.00000   3.48596   0.03873   0.03873   90.00000   0.00000   0.00010    95   96   97     11
    97   0.00000   3.48596   0.07747   0.03873   90.00000   0.00000   0.00010    96   97   98     11
    98   0.00000   3.48596   0.11620   0.03873   90.00000   0.00000   0.00010    97   98   99     11
    99   0.00000   3.48596   0.15493   0.03873   90.00000   0.00000   0.00010    98   99    0     11
   100   0.00000   3.83455  -0.15493   0.03873   90.00000   0.00000   0.00010     0  100  101     12
   101   0.00000   3.83455  -0.11620   0.03873   90.00000   0.00000   0.00010   100  101  102     12
   102   0.00000   3.83455  -0.07747   0.03873   90.00000   0.00000   0.00010   101  102  103     12
   103   0.00000   3.83455  -0.03873   0.03873   90.00000   0.00000   0.00010   102  103  104     12
   104   0.00000   3.83455   0.00000   0.03873   90.00000   0.00000   0.00010   103  104  105     12
   105   0.00000   3.83455   0.03873   0.03873   90.00000   0.00000   0.00010   104  105  106     12
   106   0.00000   3.83455   0.07747   0.03873   90.00000   0.00000   0.00010   105  106  107     12
   107   0.00000   3.83455   0.11620   0.03873   90.00000   0.00000   0.00010   106  107  108     12
   108   0.00000   3.83455   0.15493   0.03873   90.00000   0.00000   0.00010   107  108    0     12
   109   0.00000   4.18315  -0.15493   0.03873   90.00000   0.00000   0.00010     0  109  110     13
   110   0.00000   4.18315  -0.11620   0.03873   90.00000   0.00000   0.00010   109  110  111     13
   111   0.00000   4.18315  -0.07747   0.03873   90.00000   0.00000   0.00010   110  111  112     13
   112   0.00000   4.18315  -0.03873   0.03873   90.00000   0.00000   0.00010   111  112  113     13
   113   0.00000   4.18315   0.00000   0.03873   90.00000   0.00000   0.00010   112  113  114     13
   114   0.00000   4.18315   0.03873   0.03873   90.00000   0.00000   0.00010   113  114  115     13
   115   0.00000   4.18315   0.07747   0.03873   90.00000   0.00000   0.00010   114  115  116     13
   116   0.00000   4.18315   0.11620   0.03873   90.00000   0.00000   0.00010   115  116  117     13
   117   0.00000   4.18315   0.15493   0.03873   90.00000   0.00000   0.00010   116  117    0     13
   118   0.00000   4.53175  -0.15493   0.03873   90.00000   0.00000   0.00010     0  118  119     14
   119   0.00000   4.53175  -0.11620   0.03873   90.00000   0.00000   0.00010   118  119  120     14
   120   0.00000   4.53175  -0.07747   0.03873   90.00000   0.00000   0.00010   119  120  121     14
   121   0.00000   4.53175  -0.03873   0.03873   90.00000   0.00000   0.00010   120  121  122     14
   122   0.00000   4.53175   0.00000   0.03873   90.00000   0.00000   0.00010   121  122  123     14
   123   0.00000   4.53175   0.03873   0.03873   90.00000   0.00000   0.00010   122  123  124     14
   124   0.00000   4.53175   0.07747   0.03873   90.00000   0.00000   0.00010   123  124  125     14
   125   0.00000   4.53175   0.11620   0.03873   90.00000   0.00000   0.00010   124  125  126     14
   126   0.00000   4.53175   0.15493   0.03873   90.00000   0.00000   0.00010   125  126    0     14
   127   0.00000   4.88034  -0.15493   0.03873   90.00000   0.00000   0.00010     0  127  128     15
   128   0.00000   4.88034  -0.11620   0.03873   90.00000   0.00000   0.00010   127  128  129     15
   129   0.00000   4.88034  -0.07747   0.03873   90.00000   0.00000   0.00010   128  129  130     15
   130   0.00000   4.88034  -0.03873   0.03873   90.00000   0.00000   0.00010   129  130  131     15
   131   0.00000   4.88034   0.00000   0.03873   90.00000   0.00000   0.00010   130  131  132     15
   132   0.00000   4.88034   0.03873   0.03873   90.00000   0.00000   0.00010   131  132  133     15
   133   0.00000   4.88034   0.07747   0.03873   90.00000   0.00000   0.00010   132  133  134     15
   134   0.00000   4.88034   0.11620   0.03873   90.00000   0.00000   0.00010   133  134  135     15
   135   0.00000   4.88034   0.15493   0.03873   90.00000   0.00000   0.00010   134  135    0     15
   136   0.00000   5.22894  -0.15493   0.03873   90.00000   0.00000   0.00010     0  136  137     16
   137   0.00000   5.22894  -0.11620   0.03873   90.00000   0.00000   0.00010   136  137  138     16
   138   0.00000   5.22894  -0.07747   0.03873   90.00000   0.00000   0.00010   137  138  139     16
   139   0.00000   5.22894  -0.03873   0.03873   90.00000   0.00000   0.00010   138  139  140     16
   140   0.00000   5.22894   0.00000   0.03873   90.00000   0.00000   0.00010   139  140  141     16
   141   0.00000   5.22894   0.03873   0.03873   90.00000   0.00000   0.00010   140  141  142     16
   142   0.00000   5.22894   0.07747   0.03873   90.00000   0.00000   0.00010   141  142  143     16
   143   0.00000   5.22894   0.11620   0.03873   90.00000   0.00000   0.00010   142  143  144     16
   144   0.00000   5.22894   0.15493   0.03873   90.00000   0.00000   0.00010   143  144    0     16
   145   0.00000   5.57753  -0.15493   0.03873   90.00000   0.00000   0.00010     0  145  146     17
   146   0.00000   5.57753  -0.11620   0.03873   90.00000   0.00000   0.00010   145  146  147     17
   147   0.00000   5.57753  -0.07747   0.03873   90.00000   0.00000   0.00010   146  147  148     17
   148   0.00000   5.57753  -0.03873   0.03873   90.00000   0.00000   0.00010   147  148  149     17
   149   0.00000   5.57753   0.00000   0.03873   90.00000   0.00000   0.00010   148  149  150     17
   150   0.00000   5.57753   0.03873   0.03873   90.00000   0.00000   0.00010   149  150  151     17
   151   0.00000   5.57753   0.07747   0.03873   90.00000   0.00000   0.00010   150  151  152     17
   152   0.00000   5.57753   0.11620   0.03873   90.00000   0.00000   0.00010   151  152  153     17
   153   0.00000   5.57753   0.15493   0.03873   90.00000   0.00000   0.00010   152  153    0     17
   154   0.00000   5.92613  -0.15493   0.03873   90.00000   0.00000   0.00010     0  154  155     18
   155   0.00000   5.92613  -0.11620   0.03873   90.00000   0.00000   0.00010   154  155  156     18
   156   0.00000   5.92613  -0.07747   0.03873   90.00000   0.00000   0.00010   155  156  157     18
   157   0.00000   5.92613  -0.03873   0.03873   90.00000   0.00000   0.00010   156  157  158     18
   158   0.00000   5.92613   0.00000   0.03873   90.00000   0.00000   0.00010   157  158  159     18
   159   0.00000   5.92613   0.03873   0.03873   90.00000   0.00000   0.00010   158  159  160     18
   160   0.00000   5.92613   0.07747   0.03873   90.00000   0.00000   0.00010   159  160  161     18
   161   0.00000   5.92613   0.11620   0.03873   90.00000   0.00000   0.00010   160  161  162     18
   162   0.00000   5.92613   0.15493   0.03873   90.00000   0.00000   0.00010   161  162    0     18
   163   0.00000   6.27473  -0.15493   0.03873   90.00000   0.00000   0.00010     0  163  164     19
   164   0.00000   6.27473  -0.11620   0.03873   90.00000   0.00000   0.00010   163  164  165     19
   165   0.00000   6.27473  -0.07747   0.03873   90.00000   0.00000   0.00010   164  165  166     19
   166   0.00000   6.27473  -0.03873   0.03873   90.00000   0.00000   0.00010   165  166  167     19
   167   0.00000   6.27473   0.00000   0.03873   90.00000   0.00000   0.00010   166  167  168     19
   168   0.00000   6.27473   0.03873   0.03873   90.00000   0.00000   0.00010   167  168  169     19
   169   0.00000   6.27473   0.07747   0.03873   90.00000   0.00000   0.00010   168  169  170     19
   170   0.00000   6.27473   0.11620   0.03873   90.00000   0.00000   0.00010   169  170  171     19
   171   0.00000   6.27473   0.15493   0.03873   90.00000   0.00000   0.00010   170  171    0     19
   172   0.00000   6.62332  -0.15493   0.03873   90.00000   0.00000   0.00010     0  172  173     20
   173   0.00000   6.62332  -0.11620   0.03873   90.00000   0.00000   0.00010   172  173  174     20
   174   0.00000   6.62332  -0.07747   0.03873   90.00000   0.00000   0.00010   173  174  175     20
   175   0.00000   6.62332  -0.03873   0.03873   90.00000   0.00000   0.00010   174  175  176     20
   176   0.00000   6.62332   0.00000   0.03873   90.00000   0.00000   0.00010   175  176  177     20
   177   0.00000   6.62332   0.03873   0.03873   90.00000   0.00000   0.00010   176  177  178     20
   178   0.00000   6.62332   0.07747   0.03873   90.00000   0.00000   0.00010   177  178  179     20
   179   0.00000   6.62332   0.11620   0.03873   90.00000   0.00000   0.00010   178  179  180     20
   180   0.00000   6.62332   0.15493   0.03873   90.00000   0.00000   0.00010   179  180    0     20






 ***** DATA CARD NO.  1   LD   4     1     5     5  5.00000E+01  0.00000E+00  0.00000E+00  0.00000E+00  0.00000E+00  0.00000E+00
 ***** DATA CARD NO.  2   LD   4     2     5     5  5.00000E+01  0.00000E+00  0.00000E+00  0.00000E+00  0.00000E+00  0.00000E+00
 ***** DATA CARD NO.  3   LD   4     3     5     5  5.00000E+01  0.00000E+00  0.00000E+00  0.00000E+00  0.00000E+00  0.00000E+00
 ***** DATA CARD NO.  4   LD   4     4     5     5  5.00000E+01  0.00000E+00  0.00000E+00  0.00000E+00  0.00000E+00  0.00000E+00
 ***** DATA CARD NO.  5   LD   4     5     5     5  5.00000E+01  0.00000E+00  0.00000E+00  0.00000E+00  0.00000E+00  0.00000E+00
 ***** DATA CARD NO.  6   LD   4     6     5     5  5.00000E+01  0.00000E+00  0.00000E+00  0.00000E+00  0.00000E+00  0.00000E+00
 ***** DATA CARD NO.  7   LD   4     7     5     5  5.00000E+01  0.00000E+00  0.00000E+00  0.00000E+00  0.00000E+00  0.00000E+00
 ***** DATA CARD NO.  8   LD   4     8     5     5  5.00000E+01  0.00000E+00  0.00000E+00  0.00000E+00  0.00000E+00  0.00000E+00
 ***** DATA CARD NO.  9   LD   4     9     5     5  5.00000E+01  0.00000E+00  0.00000E+00  0.00000E+00  0.00000E+00  0.00000E+00
 ***** DATA CARD NO. 10   LD   4    10     5     5  5.00000E+01  0.00000E+00  0.00000E+00  0.00000E+00  0.00000E+00  0.00000E+00
 ***** DATA CARD NO. 11   LD   4    11     5     5  5.00000E+01  0.00000E+00  0.00000E+00  0.00000E+00  0.00000E+00  0.00000E+00
 ***** DATA CARD NO. 12   LD   4    12     5     5  5.00000E+01  0.00000E+00  0.00000E+00  0.00000E+00  0.00000E+00  0.00000E+00
 ***** DATA CARD NO. 13   LD   4    13     5     5  5.00000E+01  0.00000E+00  0.00000E+00  0.00000E+00  0.00000E+00  0.00000E+00
 ***** DATA CARD NO. 14   LD   4    14     5     5  5.00000E+01  0.00000E+00  0.00000E+00  0.00000E+00  0.00000E+00  0.00000E+00
 ***** DATA CARD NO. 15   LD   4    15     5     5  5.00000E+01  0.00000E+00  0.00000E+00  0.00000E+00  0.00000E+00  0.00000E+00
 ***** DATA CARD NO. 16   LD   4    16     5     5  5.00000E+01  0.00000E+00  0.00000E+00  0.00000E+00  0.00000E+00  0.00000E+00
 ***** DATA CARD NO. 17   LD   4    17     5     5  5.00000E+01  0.00000E+00  0.00000E+00  0.00000E+00  0.00000E+00  0.00000E+00
 ***** DATA CARD NO. 18   LD   4    18     5     5  5.00000E+01  0.00000E+00  0.00000E+00  0.00000E+00  0.00000E+00  0.00000E+00
 ***** DATA CARD NO. 19   LD   4    19     5     5  5.00000E+01  0.00000E+00  0.00000E+00  0.00000E+00  0.00000E+00  0.00000E+00
 ***** DATA CARD NO. 20   LD   4    20     5     5  5.00000E+01  0.00000E+00  0.00000E+00  0.00000E+00  0.00000E+00  0.00000E+00
 ***** DATA CARD NO. 21   GN  -1     0     0     0  0.00000E+00  0.00000E+00  0.00000E+00  0.00000E+00  0.00000E+00  0.00000E+00
 ***** DATA CARD NO. 22   EK   0     0     0     0  0.00000E+00  0.00000E+00  0.00000E+00  0.00000E+00  0.00000E+00  0.00000E+00
 ***** DATA CARD NO. 23   EX   0    10     5     0  1.00000E+00  0.00000E+00  0.00000E+00  0.00000E+00  0.00000E+00  0.00000E+00
 ***** DATA CARD NO. 24   FR   0     0     0     0  4.30000E+02  0.00000E+00  0.00000E+00  0.00000E+00  0.00000E+00  0.00000E+00
 ***** DATA CARD NO. 25   RP   0    37    73  1003 -1.80000E+02  0.00000E+00  5.00000E+00  5.00000E+00  0.00000E+00  0.00000E+00




                                 - - - - - - FREQUENCY - - - - - -

                                    FREQUENCY= 4.3000E+02 MHZ
                                    WAVELENGTH= 6.9721E-01 METERS




                    APPROXIMATE INTEGRATION EMPLOYED FOR SEGMENTS MORE THAN   1.000 WAVELENGTHS APART

                    THE EXTENDED THIN WIRE KERNEL WILL BE USED



                               - - - STRUCTURE IMPEDANCE LOADING - - -


       LOCATION          RESISTANCE   INDUCTANCE  CAPACITANCE       IMPEDANCE (OHMS)     CONDUCTIVITY    TYPE
    ITAG FROM THRU          OHMS        HENRYS       FARADS        REAL      IMAGINARY    MHOS/METER

       1    5    5                                             5.0000E+01                             FIXED IMPEDANCE 

       2    5    5                                             5.0000E+01                             FIXED IMPEDANCE 

       3    5    5                                             5.0000E+01                             FIXED IMPEDANCE 

       4    5    5                                             5.0000E+01                             FIXED IMPEDANCE 

       5    5    5                                             5.0000E+01                             FIXED IMPEDANCE 

       6    5    5                                             5.0000E+01                             FIXED IMPEDANCE 

       7    5    5                                             5.0000E+01                             FIXED IMPEDANCE 

       8    5    5                                             5.0000E+01                             FIXED IMPEDANCE 

       9    5    5                                             5.0000E+01                             FIXED IMPEDANCE 

      10    5    5                                             5.0000E+01                             FIXED IMPEDANCE 

      11    5    5                                             5.0000E+01                             FIXED IMPEDANCE 

      12    5    5                                             5.0000E+01                             FIXED IMPEDANCE 

      13    5    5                                             5.0000E+01                             FIXED IMPEDANCE 

      14    5    5                                             5.0000E+01                             FIXED IMPEDANCE 

      15    5    5                                             5.0000E+01                             FIXED IMPEDANCE 

      16    5    5                                             5.0000E+01                             FIXED IMPEDANCE 

      17    5    5                                             5.0000E+01                             FIXED IMPEDANCE 

      18    5    5                                             5.0000E+01                             FIXED IMPEDANCE 

      19    5    5                                             5.0000E+01                             FIXED IMPEDANCE 

      20    5    5                                             5.0000E+01                             FIXED IMPEDANCE 



                                  - - - ANTENNA ENVIRONMENT - - -

                                            FREE SPACE



                                - - - MATRIX TIMING - - -

                        FILL=    0.031 SEC.,  FACTOR=    0.016 SEC.



                                          - - - ANTENNA INPUT PARAMETERS - - -

   TAG   SEG.    VOLTAGE (VOLTS)         CURRENT (AMPS)         IMPEDANCE (OHMS)        ADMITTANCE (MHOS)      POWER
   NO.   NO.    REAL        IMAG.       REAL        IMAG.       REAL        IMAG.       REAL        IMAG.     (WATTS)
    10    86 1.00000E+00 0.00000E+00 7.30512E-03-1.43842E-03 1.31781E+02 2.59485E+01 7.30512E-03-1.43842E-03 3.65256E-03



                             - - - CURRENTS AND LOCATION - - -

                                 DISTANCES IN WAVELENGTHS


  SEG.  TAG    COORD. OF SEG. CENTER     SEG.            - - - CURRENT (AMPS) - - -
  NO.   NO.     X        Y        Z      LENGTH     REAL        IMAG.       MAG.        PHASE
     1    1   0.0000   0.0000  -0.2222  0.05555   1.5024E-05 -1.1252E-06  1.5066E-05   -4.283
     2    1   0.0000   0.0000  -0.1667  0.05555   4.0477E-05 -3.5854E-06  4.0636E-05   -5.062
     3    1   0.0000   0.0000  -0.1111  0.05555   6.0247E-05 -6.2015E-06  6.0565E-05   -5.877
     4    1   0.0000   0.0000  -0.0556  0.05555   7.2875E-05 -8.7235E-06  7.3396E-05   -6.826
     5    1   0.0000   0.0000   0.0000  0.05555   7.7120E-05 -1.0479E-05  7.7829E-05   -7.738
     6    1   0.0000   0.0000   0.0556  0.05555   7.2875E-05 -8.7235E-06  7.3396E-05   -6.826
     7    1   0.0000   0.0000   0.1111  0.05555   6.0247E-05 -6.2015E-06  6.0565E-05   -5.877
     8    1   0.0000   0.0000   0.1667  0.05555   4.0477E-05 -3.5854E-06  4.0636E-05   -5.062
     9    1   0.0000   0.0000   0.2222  0.05555   1.5024E-05 -1.1252E-06  1.5066E-05   -4.283
    10    2   0.0000   0.5000  -0.2222  0.05555  -1.4907E-05  3.0630E-06  1.5219E-05  168.389
    11    2   0.0000   0.5000  -0.1667  0.05555  -4.0139E-05  8.8085E-06  4.1094E-05  167.623
    12    2   0.0000   0.5000  -0.1111  0.05555  -5.9683E-05  1.3979E-05  6.1298E-05  166.817
    13    2   0.0000   0.5000  -0.0556  0.05555  -7.2071E-05  1.8137E-05  7.4318E-05  165.875
    14    2   0.0000   0.5000   0.0000  0.05555  -7.6120E-05  2.0446E-05  7.8819E-05  164.965
    15    2   0.0000   0.5000   0.0556  0.05555  -7.2071E-05  1.8137E-05  7.4318E-05  165.875
    16    2   0.0000   0.5000   0.1111  0.05555  -5.9683E-05  1.3979E-05  6.1298E-05  166.817
    17    2   0.0000   0.5000   0.1667  0.05555  -4.0139E-05  8.8085E-06  4.1094E-05  167.623
    18    2   0.0000   0.5000   0.2222  0.05555  -1.4907E-05  3.0630E-06  1.5219E-05  168.389
    19    3   0.0000   1.0000  -0.2222  0.05555   1.6839E-05 -3.7254E-06  1.7246E-05  -12.475
    20    3   0.0000   1.0000  -0.1667  0.05555   4.5330E-05 -1.0663E-05  4.6568E-05  -13.237
    21    3   0.0000   1.0000  -0.1111  0.05555   6.7387E-05 -1.6851E-05  6.9462E-05  -14.040
    22    3   0.0000   1.0000  -0.0556  0.05555   8.1353E-05 -2.1769E-05  8.4215E-05  -14.981
    23    3   0.0000   1.0000   0.0000  0.05555   8.5903E-05 -2.4454E-05  8.9316E-05  -15.890
    24    3   0.0000   1.0000   0.0556  0.05555   8.1353E-05 -2.1769E-05  8.4215E-05  -14.981
    25    3   0.0000   1.0000   0.1111  0.05555   6.7387E-05 -1.6851E-05  6.9462E-05  -14.040
    26    3   0.0000   1.0000   0.1667  0.05555   4.5330E-05 -1.0663E-05  4.6568E-05  -13.237
    27    3   0.0000   1.0000   0.2222  0.05555   1.6839E-05 -3.7254E-06  1.7246E-05  -12.475
    28    4   0.0000   1.5000  -0.2222  0.05555  -2.0324E-05  4.0600E-06  2.0725E-05  168.703
    29    4   0.0000   1.5000  -0.1667  0.05555  -5.4717E-05  1.1695E-05  5.5953E-05  167.936
    30    4   0.0000   1.5000  -0.1111  0.05555  -8.1355E-05  1.8588E-05  8.3451E-05  167.130
    31    4   0.0000   1.5000  -0.0556  0.05555  -9.8243E-05  2.4155E-05  1.0117E-04  166.187
    32    4   0.0000   1.5000   0.0000  0.05555  -1.0377E-04  2.7269E-05  1.0729E-04  165.277
    33    4   0.0000   1.5000   0.0556  0.05555  -9.8243E-05  2.4155E-05  1.0117E-04  166.187
    34    4   0.0000   1.5000   0.1111  0.05555  -8.1355E-05  1.8588E-05  8.3451E-05  167.130
    35    4   0.0000   1.5000   0.1667  0.05555  -5.4717E-05  1.1695E-05  5.5953E-05  167.936
    36    4   0.0000   1.5000   0.2222  0.05555  -2.0324E-05  4.0600E-06  2.0725E-05  168.703
    37    5   0.0000   2.0000  -0.2222  0.05555   2.6050E-05 -4.0376E-06  2.6361E-05   -8.811
    38    5   0.0000   2.0000  -0.1667  0.05555   7.0151E-05 -1.1849E-05  7.1145E-05   -9.587
    39    5   0.0000   2.0000  -0.1111  0.05555   1.0434E-04 -1.9150E-05  1.0609E-04  -10.400
    40    5   0.0000   2.0000  -0.0556  0.05555   1.2608E-04 -2.5301E-05  1.2860E-04  -11.347
    41    5   0.0000   2.0000   0.0000  0.05555   1.3327E-04 -2.8955E-05  1.3638E-04  -12.258
    42    5   0.0000   2.0000   0.0556  0.05555   1.2608E-04 -2.5301E-05  1.2860E-04  -11.347
    43    5   0.0000   2.0000   0.1111  0.05555   1.0434E-04 -1.9150E-05  1.0609E-04  -10.400
    44    5   0.0000   2.0000   0.1667  0.05555   7.0151E-05 -1.1849E-05  7.1145E-05   -9.587
    45    5   0.0000   2.0000   0.2222  0.05555   2.6050E-05 -4.0376E-06  2.6361E-05   -8.811
    46    6   0.0000   2.4999  -0.2222  0.05555  -3.5862E-05  3.1159E-06  3.5997E-05  175.034
    47    6   0.0000   2.4999  -0.1667  0.05555  -9.6612E-05  9.7365E-06  9.7102E-05  174.245
    48    6   0.0000   2.4999  -0.1111  0.05555  -1.4379E-04  1.6576E-05  1.4475E-04  173.424
    49    6   0.0000   2.4999  -0.0556  0.05555  -1.7391E-04  2.2984E-05  1.7543E-04  172.472
    50    6   0.0000   2.4999   0.0000  0.05555  -1.8401E-04  2.7309E-05  1.8603E-04  171.559
    51    6   0.0000   2.4999   0.0556  0.05555  -1.7391E-04  2.2984E-05  1.7543E-04  172.472
    52    6   0.0000   2.4999   0.1111  0.05555  -1.4379E-04  1.6576E-05  1.4475E-04  173.424
    53    6   0.0000   2.4999   0.1667  0.05555  -9.6612E-05  9.7365E-06  9.7102E-05  174.245
    54    6   0.0000   2.4999   0.2222  0.05555  -3.5862E-05  3.1159E-06  3.5997E-05  175.034
    55    7   0.0000   2.9999  -0.2222  0.05555   5.4594E-05  7.7507E-07  5.4599E-05    0.813
    56    7   0.0000   2.9999  -0.1667  0.05555   1.4716E-04  2.7887E-08  1.4716E-04    0.011
    57    7   0.0000   2.9999  -0.1111  0.05555   2.1922E-04 -3.1396E-06  2.1925E-04   -0.820
    58    7   0.0000   2.9999  -0.0556  0.05555   2.6551E-04 -8.2468E-06  2.6564E-04   -1.779
    59    7   0.0000   2.9999   0.0000  0.05555   2.8136E-04 -1.3241E-05  2.8167E-04   -2.694
    60    7   0.0000   2.9999   0.0556  0.05555   2.6551E-04 -8.2468E-06  2.6564E-04   -1.779
    61    7   0.0000   2.9999   0.1111  0.05555   2.1922E-04 -3.1396E-06  2.1925E-04   -0.820
    62    7   0.0000   2.9999   0.1667  0.05555   1.4716E-04  2.7887E-08  1.4716E-04    0.011
    63    7   0.0000   2.9999   0.2222  0.05555   5.4594E-05  7.7507E-07  5.4599E-05    0.813
    64    8   0.0000   3.4999  -0.2222  0.05555  -9.8319E-05 -1.7434E-05  9.9853E-05 -169.945
    65    8   0.0000   3.4999  -0.1667  0.05555  -2.6519E-04 -4.3202E-05  2.6868E-04 -170.747
    66    8   0.0000   3.4999  -0.1111  0.05555  -3.9555E-04 -5.8540E-05  3.9985E-04 -171.581
    67    8   0.0000   3.4999  -0.0556  0.05555  -4.8007E-04 -6.2834E-05  4.8416E-04 -172.543
    68    8   0.0000   3.4999   0.0000  0.05555  -5.0993E-04 -5.8460E-05  5.1327E-04 -173.460
    69    8   0.0000   3.4999   0.0556  0.05555  -4.8007E-04 -6.2834E-05  4.8416E-04 -172.543
    70    8   0.0000   3.4999   0.1111  0.05555  -3.9555E-04 -5.8540E-05  3.9985E-04 -171.581
    71    8   0.0000   3.4999   0.1667  0.05555  -2.6519E-04 -4.3202E-05  2.6868E-04 -170.747
    72    8   0.0000   3.4999   0.2222  0.05555  -9.8319E-05 -1.7434E-05  9.9853E-05 -169.945
    73    9   0.0000   3.9999  -0.2222  0.05555   2.6461E-04  1.2310E-04  2.9184E-04   24.948
    74    9   0.0000   3.9999  -0.1667  0.05555   7.1316E-04  3.2330E-04  7.8302E-04   24.386
    75    9   0.0000   3.9999  -0.1111  0.05555   1.0646E-03  4.6768E-04  1.1628E-03   23.716
    76    9   0.0000   3.9999  -0.0556  0.05555   1.2958E-03  5.4597E-04  1.4061E-03   22.848
    77    9   0.0000   3.9999   0.0000  0.05555   1.3819E-03  5.5722E-04  1.4900E-03   21.961
    78    9   0.0000   3.9999   0.0556  0.05555   1.2958E-03  5.4597E-04  1.4061E-03   22.848
    79    9   0.0000   3.9999   0.1111  0.05555   1.0646E-03  4.6768E-04  1.1628E-03   23.716
    80    9   0.0000   3.9999   0.1667  0.05555   7.1316E-04  3.2330E-04  7.8302E-04   24.386
    81    9   0.0000   3.9999   0.2222  0.05555   2.6461E-04  1.2310E-04  2.9184E-04   24.948
    82   10   0.0000   4.4999  -0.2222  0.05555   1.4337E-03 -4.0789E-04  1.4906E-03  -15.881
    83   10   0.0000   4.4999  -0.1667  0.05555   3.8529E-03 -1.0333E-03  3.9890E-03  -15.013
    84   10   0.0000   4.4999  -0.1111  0.05555   5.7231E-03 -1.4227E-03  5.8973E-03  -13.960
    85   10   0.0000   4.4999  -0.0556  0.05555   6.9112E-03 -1.5419E-03  7.0811E-03  -12.577
    86   10   0.0000   4.4999   0.0000  0.05555   7.3051E-03 -1.4384E-03  7.4454E-03  -11.139
    87   10   0.0000   4.4999   0.0556  0.05555   6.9112E-03 -1.5419E-03  7.0811E-03  -12.577
    88   10   0.0000   4.4999   0.1111  0.05555   5.7231E-03 -1.4227E-03  5.8973E-03  -13.960
    89   10   0.0000   4.4999   0.1667  0.05555   3.8529E-03 -1.0333E-03  3.9890E-03  -15.013
    90   10   0.0000   4.4999   0.2222  0.05555   1.4337E-03 -4.0789E-04  1.4906E-03  -15.881
    91   11   0.0000   4.9999  -0.2222  0.05555   2.6458E-04  1.2309E-04  2.9181E-04   24.949
    92   11   0.0000   4.9999  -0.1667  0.05555   7.1308E-04  3.2329E-04  7.8294E-04   24.388
    93   11   0.0000   4.9999  -0.1111  0.05555   1.0645E-03  4.6766E-04  1.1627E-03   23.717
    94   11   0.0000   4.9999  -0.0556  0.05555   1.2956E-03  5.4595E-04  1.4060E-03   22.849
    95   11   0.0000   4.9999   0.0000  0.05555   1.3817E-03  5.5720E-04  1.4898E-03   21.963
    96   11   0.0000   4.9999   0.0556  0.05555   1.2956E-03  5.4595E-04  1.4060E-03   22.849
    97   11   0.0000   4.9999   0.1111  0.05555   1.0645E-03  4.6766E-04  1.1627E-03   23.717
    98   11   0.0000   4.9999   0.1667  0.05555   7.1308E-04  3.2329E-04  7.8294E-04   24.388
    99   11   0.0000   4.9999   0.2222  0.05555   2.6458E-04  1.2309E-04  2.9181E-04   24.949
   100   12   0.0000   5.4999  -0.2222  0.05555  -9.8256E-05 -1.7422E-05  9.9789E-05 -169.945
   101   12   0.0000   5.4999  -0.1667  0.05555  -2.6502E-04 -4.3173E-05  2.6851E-04 -170.747
   102   12   0.0000   5.4999  -0.1111  0.05555  -3.9529E-04 -5.8500E-05  3.9960E-04 -171.582
   103   12   0.0000   5.4999  -0.0556  0.05555  -4.7976E-04 -6.2790E-05  4.8385E-04 -172.544
   104   12   0.0000   5.4999   0.0000  0.05555  -5.0961E-04 -5.8419E-05  5.1294E-04 -173.460
   105   12   0.0000   5.4999   0.0556  0.05555  -4.7976E-04 -6.2790E-05  4.8385E-04 -172.544
   106   12   0.0000   5.4999   0.1111  0.05555  -3.9529E-04 -5.8500E-05  3.9960E-04 -171.582
   107   12   0.0000   5.4999   0.1667  0.05555  -2.6502E-04 -4.3173E-05  2.6851E-04 -170.747
   108   12   0.0000   5.4999   0.2222  0.05555  -9.8256E-05 -1.7422E-05  9.9789E-05 -169.945
   109   13   0.0000   5.9998  -0.2222  0.05555   5.4493E-05  7.5498E-07  5.4498E-05    0.794
   110   13   0.0000   5.9998  -0.1667  0.05555   1.4689E-04 -2.2681E-08  1.4689E-04   -0.009
   111   13   0.0000   5.9998  -0.1111  0.05555   2.1882E-04 -3.2093E-06  2.1884E-04   -0.840
   112   13   0.0000   5.9998  -0.0556  0.05555   2.6502E-04 -8.3231E-06  2.6515E-04   -1.799
   113   13   0.0000   5.9998   0.0000  0.05555   2.8083E-04 -1.3313E-05  2.8115E-04   -2.714
   114   13   0.0000   5.9998   0.0556  0.05555   2.6502E-04 -8.3231E-06  2.6515E-04   -1.799
   115   13   0.0000   5.9998   0.1111  0.05555   2.1882E-04 -3.2093E-06  2.1884E-04   -0.840
   116   13   0.0000   5.9998   0.1667  0.05555   1.4689E-04 -2.2681E-08  1.4689E-04   -0.009
   117   13   0.0000   5.9998   0.2222  0.05555   5.4493E-05  7.5498E-07  5.4498E-05    0.794
   118   14   0.0000   6.4998  -0.2222  0.05555  -3.5712E-05  3.1480E-06  3.5850E-05  174.962
   119   14   0.0000   6.4998  -0.1667  0.05555  -9.6207E-05  9.8177E-06  9.6706E-05  174.173
   120   14   0.0000   6.4998  -0.1111  0.05555  -1.4319E-04  1.6689E-05  1.4416E-04  173.352
   121   14   0.0000   6.4998  -0.0556  0.05555  -1.7318E-04  2.3108E-05  1.7471E-04  172.400
   122   14   0.0000   6.4998   0.0000  0.05555  -1.8323E-04  2.7428E-05  1.8527E-04  171.487
   123   14   0.0000   6.4998   0.0556  0.05555  -1.7318E-04  2.3108E-05  1.7471E-04  172.400
   124   14   0.0000   6.4998   0.1111  0.05555  -1.4319E-04  1.6689E-05  1.4416E-04  173.352
   125   14   0.0000   6.4998   0.1667  0.05555  -9.6207E-05  9.8177E-06  9.6706E-05  174.173
   126   14   0.0000   6.4998   0.2222  0.05555  -3.5712E-05  3.1480E-06  3.5850E-05  174.962
   127   15   0.0000   6.9998  -0.2222  0.05555   2.5832E-05 -4.0915E-06  2.6154E-05   -9.000
   128   15   0.0000   6.9998  -0.1667  0.05555   6.9562E-05 -1.1986E-05  7.0587E-05   -9.777
   129   15   0.0000   6.9998  -0.1111  0.05555   1.0346E-04 -1.9342E-05  1.0526E-04  -10.589
   130   15   0.0000   6.9998  -0.0556  0.05555   1.2501E-04 -2.5516E-05  1.2759E-04  -11.536
   131   15   0.0000   6.9998   0.0000  0.05555   1.3213E-04 -2.9165E-05  1.3531E-04  -12.447
   132   15   0.0000   6.9998   0.0556  0.05555   1.2501E-04 -2.5516E-05  1.2759E-04  -11.536
   133   15   0.0000   6.9998   0.1111  0.05555   1.0346E-04 -1.9342E-05  1.0526E-04  -10.589
   134   15   0.0000   6.9998   0.1667  0.05555   6.9562E-05 -1.1986E-05  7.0587E-05   -9.777
   135   15   0.0000   6.9998   0.2222  0.05555   2.5832E-05 -4.0915E-06  2.6154E-05   -9.000
   136   16   0.0000   7.4998  -0.2222  0.05555  -2.0001E-05  4.1543E-06  2.0428E-05  168.266
   137   16   0.0000   7.4998  -0.1667  0.05555  -5.3845E-05  1.1937E-05  5.5152E-05  167.500
   138   16   0.0000   7.4998  -0.1111  0.05555  -8.0049E-05  1.8931E-05  8.2257E-05  166.695
   139   16   0.0000   7.4998  -0.0556  0.05555  -9.6654E-05  2.4544E-05  9.9722E-05  165.752
   140   16   0.0000   7.4998   0.0000  0.05555  -1.0208E-04  2.7654E-05  1.0576E-04  164.842
   141   16   0.0000   7.4998   0.0556  0.05555  -9.6654E-05  2.4544E-05  9.9722E-05  165.752
   142   16   0.0000   7.4998   0.1111  0.05555  -8.0049E-05  1.8931E-05  8.2257E-05  166.695
   143   16   0.0000   7.4998   0.1667  0.05555  -5.3845E-05  1.1937E-05  5.5152E-05  167.500
   144   16   0.0000   7.4998   0.2222  0.05555  -2.0001E-05  4.1543E-06  2.0428E-05  168.266
   145   17   0.0000   7.9998  -0.2222  0.05555   1.6332E-05 -3.9105E-06  1.6794E-05  -13.465
   146   17   0.0000   7.9998  -0.1667  0.05555   4.3959E-05 -1.1143E-05  4.5349E-05  -14.224
   147   17   0.0000   7.9998  -0.1111  0.05555   6.5334E-05 -1.7536E-05  6.7646E-05  -15.025
   148   17   0.0000   7.9998  -0.0556  0.05555   7.8852E-05 -2.2558E-05  8.2016E-05  -15.965
   149   17   0.0000   7.9998   0.0000  0.05555   8.3238E-05 -2.5248E-05  8.6983E-05  -16.874
   150   17   0.0000   7.9998   0.0556  0.05555   7.8852E-05 -2.2558E-05  8.2016E-05  -15.965
   151   17   0.0000   7.9998   0.1111  0.05555   6.5334E-05 -1.7536E-05  6.7646E-05  -15.025
   152   17   0.0000   7.9998   0.1667  0.05555   4.3959E-05 -1.1143E-05  4.5349E-05  -14.224
   153   17   0.0000   7.9998   0.2222  0.05555   1.6332E-05 -3.9105E-06  1.6794E-05  -13.465
   154   18   0.0000   8.4998  -0.2222  0.05555  -1.4004E-05  3.5144E-06  1.4438E-05  165.912
   155   18   0.0000   8.4998  -0.1667  0.05555  -3.7692E-05  9.9896E-06  3.8994E-05  165.156
   156   18   0.0000   8.4998  -0.1111  0.05555  -5.6016E-05  1.5684E-05  5.8171E-05  164.358
   157   18   0.0000   8.4998  -0.0556  0.05555  -6.7598E-05  2.0127E-05  7.0530E-05  163.419
   158   18   0.0000   8.4998   0.0000  0.05555  -7.1345E-05  2.2480E-05  7.4803E-05  162.511
   159   18   0.0000   8.4998   0.0556  0.05555  -6.7598E-05  2.0127E-05  7.0530E-05  163.419
   160   18   0.0000   8.4998   0.1111  0.05555  -5.6016E-05  1.5684E-05  5.8171E-05  164.358
   161   18   0.0000   8.4998   0.1667  0.05555  -3.7692E-05  9.9896E-06  3.8994E-05  165.156
   162   18   0.0000   8.4998   0.2222  0.05555  -1.4004E-05  3.5144E-06  1.4438E-05  165.912
   163   19   0.0000   8.9998  -0.2222  0.05555   1.2739E-05 -2.8899E-06  1.3063E-05  -12.781
   164   19   0.0000   8.9998  -0.1667  0.05555   3.4296E-05 -8.2615E-06  3.5277E-05  -13.544
   165   19   0.0000   8.9998  -0.1111  0.05555   5.0984E-05 -1.3040E-05  5.2626E-05  -14.346
   166   19   0.0000   8.9998  -0.0556  0.05555   6.1548E-05 -1.6823E-05  6.3806E-05  -15.287
   167   19   0.0000   8.9998   0.0000  0.05555   6.4985E-05 -1.8876E-05  6.7671E-05  -16.197
   168   19   0.0000   8.9998   0.0556  0.05555   6.1548E-05 -1.6823E-05  6.3806E-05  -15.287
   169   19   0.0000   8.9998   0.1111  0.05555   5.0984E-05 -1.3040E-05  5.2626E-05  -14.346
   170   19   0.0000   8.9998   0.1667  0.05555   3.4296E-05 -8.2615E-06  3.5277E-05  -13.544
   171   19   0.0000   8.9998   0.2222  0.05555   1.2739E-05 -2.8899E-06  1.3063E-05  -12.781
   172   20   0.0000   9.4998  -0.2222  0.05555  -1.3138E-05  1.1660E-06  1.3190E-05  174.929
   173   20   0.0000   9.4998  -0.1667  0.05555  -3.5392E-05  3.6254E-06  3.5577E-05  174.151
   174   20   0.0000   9.4998  -0.1111  0.05555  -5.2671E-05  6.1526E-06  5.3029E-05  173.337
   175   20   0.0000   9.4998  -0.0556  0.05555  -6.3698E-05  8.5117E-06  6.4264E-05  172.389
   176   20   0.0000   9.4998   0.0000  0.05555  -6.7394E-05  1.0100E-05  6.8147E-05  171.477
   177   20   0.0000   9.4998   0.0556  0.05555  -6.3698E-05  8.5117E-06  6.4264E-05  172.389
   178   20   0.0000   9.4998   0.1111  0.05555  -5.2671E-05  6.1526E-06  5.3029E-05  173.337
   179   20   0.0000   9.4998   0.1667  0.05555  -3.5392E-05  3.6254E-06  3.5577E-05  174.151
   180   20   0.0000   9.4998   0.2222  0.05555  -1.3138E-05  1.1660E-06  1.3190E-05  174.929



                                        - - - POWER BUDGET - - -

                                           INPUT POWER   = 3.6526E-03 WATTS
                                           RADIATED POWER= 2.1343E-03 WATTS
                                           STRUCTURE LOSS= 1.5182E-03 WATTS
                                           NETWORK LOSS  = 0.0000E+00 WATTS
                                           EFFICIENCY    =  58.43 PERCENT



                                                - - - RADIATION PATTERNS - - -

  - - ANGLES - -           - POWER GAINS -       - - - POLARIZATION - - -    - - - E(THETA) - - -    - - - E(PHI) - - -
  THETA     PHI        VERT.   HOR.    TOTAL      AXIAL     TILT   SENSE     MAGNITUDE    PHASE      MAGNITUDE    PHASE 
 DEGREES  DEGREES       DB      DB      DB        RATIO     DEG.              VOLTS/M    DEGREES      VOLTS/M    DEGREES
 -180.00     0.00    -999.99 -999.99 -999.99    0.00000     0.00            4.59127E-12    86.05    0.00000E+00     0.00
 -175.00     0.00     -21.52 -999.99  -21.52    0.00000     0.00  LINEAR    3.92819E-02   -93.95    0.00000E+00     0.00
 -170.00     0.00     -15.48 -999.99  -15.48    0.00000     0.00  LINEAR    7.87228E-02   -93.96    0.00000E+00     0.00
 -165.00     0.00     -11.93 -999.99  -11.93    0.00000     0.00  LINEAR    1.18455E-01   -93.97    0.00000E+00     0.00
 -160.00     0.00      -9.40 -999.99   -9.40    0.00000     0.00  LINEAR    1.58560E-01   -93.98    0.00000E+00     0.00
 -155.00     0.00      -7.43 -999.99   -7.43    0.00000     0.00  LINEAR    1.99042E-01   -94.00    0.00000E+00     0.00
 -150.00     0.00      -5.81 -999.99   -5.81    0.00000     0.00  LINEAR    2.39810E-01   -94.02    0.00000E+00     0.00
 -145.00     0.00      -4.44 -999.99   -4.44    0.00000     0.00  LINEAR    2.80661E-01   -94.05    0.00000E+00     0.00
 -140.00     0.00      -3.27 -999.99   -3.27    0.00000     0.00  LINEAR    3.21269E-01   -94.07    0.00000E+00     0.00
 -135.00     0.00      -2.25 -999.99   -2.25    0.00000     0.00  LINEAR    3.61181E-01   -94.09    0.00000E+00     0.00
 -130.00     0.00      -1.37 -999.99   -1.37    0.00000     0.00  LINEAR    3.99830E-01   -94.11    0.00000E+00     0.00
 -125.00     0.00      -0.60 -999.99   -0.60    0.00000     0.00  LINEAR    4.36543E-01   -94.14    0.00000E+00     0.00
 -120.00     0.00       0.05 -999.99    0.05    0.00000     0.00  LINEAR    4.70574E-01   -94.16    0.00000E+00     0.00
 -115.00     0.00       0.59 -999.99    0.59    0.00000     0.00  LINEAR    5.01138E-01   -94.17    0.00000E+00     0.00
 -110.00     0.00       1.04 -999.99    1.04    0.00000     0.00  LINEAR    5.27454E-01   -94.19    0.00000E+00     0.00
 -105.00     0.00       1.38 -999.99    1.38    0.00000     0.00  LINEAR    5.48794E-01   -94.20    0.00000E+00     0.00
 -100.00     0.00       1.63 -999.99    1.63    0.00000     0.00  LINEAR    5.64529E-01   -94.21    0.00000E+00     0.00
  -95.00     0.00       1.78 -999.99    1.78    0.00000     0.00  LINEAR    5.74174E-01   -94.21    0.00000E+00     0.00
  -90.00     0.00       1.83 -999.99    1.83    0.00000     0.00  LINEAR    5.77424E-01   -94.22    0.00000E+00     0.00
  -85.00     0.00       1.78 -999.99    1.78    0.00000     0.00  LINEAR    5.74174E-01   -94.21    0.00000E+00     0.00
  -80.00     0.00       1.63 -999.99    1.63    0.00000     0.00  LINEAR    5.64529E-01   -94.21    0.00000E+00     0.00
  -75.00     0.00       1.38 -999.99    1.38    0.00000     0.00  LINEAR    5.48794E-01   -94.20    0.00000E+00     0.00
  -70.00     0.00       1.04 -999.99    1.04    0.00000     0.00  LINEAR    5.27454E-01   -94.19    0.00000E+00     0.00
  -65.00     0.00       0.59 -999.99    0.59    0.00000     0.00  LINEAR    5.01138E-01   -94.17    0.00000E+00     0.00
  -60.00     0.00       0.05 -999.99    0.05    0.00000     0.00  LINEAR    4.70574E-01   -94.16    0.00000E+00     0.00
  -55.00     0.00      -0.60 -999.99   -0.60    0.00000     0.00  LINEAR    4.36543E-01   -94.14    0.00000E+00     0.00
  -50.00     0.00      -1.37 -999.99   -1.37    0.00000     0.00  LINEAR    3.99830E-01   -94.11    0.00000E+00     0.00
  -45.00     0.00      -2.25 -999.99   -2.25    0.00000     0.00  LINEAR    3.61181E-01   -94.09    0.00000E+00     0.00
  -40.00     0.00      -3.27 -999.99   -3.27    0.00000     0.00  LINEAR    3.21269E-01   -94.07    0.00000E+00     0.00
  -35.00     0.00      -4.44 -999.99   -4.44    0.00000     0.00  LINEAR    2.80661E-01   -94.05    0.00000E+00     0.00
  -30.00     0.00      -5.81 -999.99   -5.81    0.00000     0.00  LINEAR    2.39810E-01   -94.02    0.00000E+00     0.00
  -25.00     0.00      -7.43 -999.99   -7.43    0.00000     0.00  LINEAR    1.99042E-01   -94.00    0.00000E+00     0.00
  -20.00     0.00      -9.40 -999.99   -9.40    0.00000     0.00  LINEAR    1.58560E-01   -93.98    0.00000E+00     0.00
  -15.00     0.00     -11.93 -999.99  -11.93    0.00000     0.00  LINEAR    1.18455E-01   -93.97    0.00000E+00     0.00
  -10.00     0.00     -15.48 -999.99  -15.48    0.00000     0.00  LINEAR    7.87228E-02   -93.96    0.00000E+00     0.00
   -5.00     0.00     -21.52 -999.99  -21.52    0.00000     0.00  LINEAR    3.92819E-02   -93.95    0.00000E+00     0.00
    0.00     0.00    -999.99 -999.99 -999.99    0.00000     0.00            0.00000E+00     0.00    0.00000E+00     0.00
 -180.00     5.00    -999.99 -999.99 -999.99    0.00000     0.00            4.59127E-12    86.05    0.00000E+00     0.00
 -175.00     5.00     -21.52 -999.99  -21.52    0.00000     0.00  LINEAR    3.92782E-02  -106.15    0.00000E+00     0.00
 -170.00     5.00     -15.48 -999.99  -15.48    0.00000     0.00  LINEAR    7.87051E-02  -118.27    0.00000E+00     0.00
 -165.00     5.00     -11.94 -999.99  -11.94    0.00000     0.00  LINEAR    1.18409E-01  -130.23    0.00000E+00     0.00
 -160.00     5.00      -9.41 -999.99   -9.41    0.00000     0.00  LINEAR    1.58465E-01  -141.92    0.00000E+00     0.00
 -155.00     5.00      -7.43 -999.99   -7.43    0.00000     0.00  LINEAR    1.98873E-01  -153.28    0.00000E+00     0.00
 -150.00     5.00      -5.82 -999.99   -5.82    0.00000     0.00  LINEAR    2.39537E-01  -164.21    0.00000E+00     0.00
 -145.00     5.00      -4.45 -999.99   -4.45    0.00000     0.00  LINEAR    2.80248E-01  -174.62    0.00000E+00     0.00
 -140.00     5.00      -3.28 -999.99   -3.28    0.00000     0.00  LINEAR    3.20679E-01   175.56    0.00000E+00     0.00
 -135.00     5.00      -2.27 -999.99   -2.27    0.00000     0.00  LINEAR    3.60379E-01   166.42    0.00000E+00     0.00
 -130.00     5.00      -1.39 -999.99   -1.39    0.00000     0.00  LINEAR    3.98784E-01   158.03    0.00000E+00     0.00
 -125.00     5.00      -0.63 -999.99   -0.63    0.00000     0.00  LINEAR    4.35231E-01   150.45    0.00000E+00     0.00
 -120.00     5.00       0.02 -999.99    0.02    0.00000     0.00  LINEAR    4.68986E-01   143.76    0.00000E+00     0.00
 -115.00     5.00       0.56 -999.99    0.56    0.00000     0.00  LINEAR    4.99278E-01   138.01    0.00000E+00     0.00
 -110.00     5.00       1.00 -999.99    1.00    0.00000     0.00  LINEAR    5.25343E-01   133.23    0.00000E+00     0.00
 -105.00     5.00       1.35 -999.99    1.35    0.00000     0.00  LINEAR    5.46466E-01   129.48    0.00000E+00     0.00
 -100.00     5.00       1.59 -999.99    1.59    0.00000     0.00  LINEAR    5.62036E-01   126.78    0.00000E+00     0.00
  -95.00     5.00       1.74 -999.99    1.74    0.00000     0.00  LINEAR    5.71577E-01   125.15    0.00000E+00     0.00
  -90.00     5.00       1.79 -999.99    1.79    0.00000     0.00  LINEAR    5.74791E-01   124.60    0.00000E+00     0.00
  -85.00     5.00       1.74 -999.99    1.74    0.00000     0.00  LINEAR    5.71577E-01   125.15    0.00000E+00     0.00
  -80.00     5.00       1.59 -999.99    1.59    0.00000     0.00  LINEAR    5.62036E-01   126.78    0.00000E+00     0.00
  -75.00     5.00       1.35 -999.99    1.35    0.00000     0.00  LINEAR    5.46466E-01   129.48    0.00000E+00     0.00
  -70.00     5.00       1.00 -999.99    1.00    0.00000     0.00  LINEAR    5.25343E-01   133.23    0.00000E+00     0.00
  -65.00     5.00       0.56 -999.99    0.56    0.00000     0.00  LINEAR    4.99278E-01   138.01    0.00000E+00     0.00
  -60.00     5.00       0.02 -999.99    0.02    0.00000     0.00  LINEAR    4.68986E-01   143.76    0.00000E+00     0.00
  -55.00     5.00      -0.63 -999.99   -0.63    0.00000     0.00  LINEAR    4.35231E-01   150.45    0.00000E+00     0.00
  -50.00     5.00      -1.39 -999.99   -1.39    0.00000     0.00  LINEAR    3.98784E-01   158.03    0.00000E+00     0.00
  -45.00     5.00      -2.27 -999.99   -2.27    0.00000     0.00  LINEAR    3.60379E-01   166.42    0.00000E+00     0.00
  -40.00     5.00      -3.28 -999.99   -3.28    0.00000     0.00  LINEAR    3.20679E-01   175.56    0.00000E+00     0.00
  -35.00     5.00      -4.45 -999.99   -4.45    0.00000     0.00  LINEAR    2.80248E-01  -174.62    0.00000E+00     0.00
  -30.00     5.00      -5.82 -999.99   -5.82    0.00000     0.00  LINEAR    2.39537E-01  -164.21    0.00000E+00     0.00
  -25.00     5.00      -7.43 -999.99   -7.43    0.00000     0.00  LINEAR    1.98873E-01  -153.28    0.00000E+00     0.00
  -20.00     5.00      -9.41 -999.99   -9.41    0.00000     0.00  LINEAR    1.58465E-01  -141.92    0.00000E+00     0.00
  -15.00     5.00     -11.94 -999.99  -11.94    0.00000     0.00  LINEAR    1.18409E-01  -130.23    0.00000E+00     0.00
  -10.00     5.00     -15.48 -999.99  -15.48    0.00000     0.00  LINEAR    7.87051E-02  -118.27    0.00000E+00     0.00
   -5.00     5.00     -21.52 -999.99  -21.52    0.00000     0.00  LINEAR    3.92782E-02  -106.15    0.00000E+00     0.00
    0.00     5.00    -999.99 -999.99 -999.99    0.00000     0.00            0.00000E+00     0.00    0.00000E+00     0.00
 -180.00    10.00    -999.99 -999.99 -999.99    0.00000     0.00            4.59127E-12    86.05    0.00000E+00     0.00
 -175.00    10.00     -21.52 -999.99  -21.52    0.00000     0.00  LINEAR    3.92731E-02  -118.26    0.00000E+00     0.00
 -170.00    10.00     -15.49 -999.99  -15.49    0.00000     0.00  LINEAR    7.86753E-02  -142.45    0.00000E+00     0.00
 -165.00    10.00     -11.94 -999.99  -11.94    0.00000     0.00  LINEAR    1.18314E-01  -166.37    0.00000E+00     0.00
 -160.00    10.00      -9.42 -999.99   -9.42    0.00000     0.00  LINEAR    1.58237E-01   170.16    0.00000E+00     0.00
 -155.00    10.00      -7.45 -999.99   -7.45    0.00000     0.00  LINEAR    1.98413E-01   147.33    0.00000E+00     0.00
 -150.00    10.00      -5.85 -999.99   -5.85    0.00000     0.00  LINEAR    2.38727E-01   125.34    0.00000E+00     0.00
 -145.00    10.00      -4.49 -999.99   -4.49    0.00000     0.00  LINEAR    2.78968E-01   104.38    0.00000E+00     0.00
 -140.00    10.00      -3.33 -999.99   -3.33    0.00000     0.00  LINEAR    3.18824E-01    84.66    0.00000E+00     0.00
 -135.00    10.00      -2.33 -999.99   -2.33    0.00000     0.00  LINEAR    3.57877E-01    66.34    0.00000E+00     0.00
 -130.00    10.00      -1.46 -999.99   -1.46    0.00000     0.00  LINEAR    3.95599E-01    49.57    0.00000E+00     0.00
 -125.00    10.00      -0.71 -999.99   -0.71    0.00000     0.00  LINEAR    4.31365E-01    34.49    0.00000E+00     0.00
 -120.00    10.00      -0.07 -999.99   -0.07    0.00000     0.00  LINEAR    4.64473E-01    21.21    0.00000E+00     0.00
 -115.00    10.00       0.47 -999.99    0.47    0.00000     0.00  LINEAR    4.94178E-01     9.82    0.00000E+00     0.00
 -110.00    10.00       0.91 -999.99    0.91    0.00000     0.00  LINEAR    5.19737E-01     0.39    0.00000E+00     0.00
 -105.00    10.00       1.25 -999.99    1.25    0.00000     0.00  LINEAR    5.40450E-01    -7.01    0.00000E+00     0.00
 -100.00    10.00       1.49 -999.99    1.49    0.00000     0.00  LINEAR    5.55717E-01   -12.33    0.00000E+00     0.00
  -95.00    10.00       1.64 -999.99    1.64    0.00000     0.00  LINEAR    5.65073E-01   -15.54    0.00000E+00     0.00
  -90.00    10.00       1.69 -999.99    1.69    0.00000     0.00  LINEAR    5.68225E-01   -16.61    0.00000E+00     0.00
  -85.00    10.00       1.64 -999.99    1.64    0.00000     0.00  LINEAR    5.65073E-01   -15.54    0.00000E+00     0.00
  -80.00    10.00       1.49 -999.99    1.49    0.00000     0.00  LINEAR    5.55717E-01   -12.33    0.00000E+00     0.00
  -75.00    10.00       1.25 -999.99    1.25    0.00000     0.00  LINEAR    5.40450E-01    -7.01    0.00000E+00     0.00
  -70.00    10.00       0.91 -999.99    0.91    0.00000     0.00  LINEAR    5.19737E-01     0.39    0.00000E+00     0.00
  -65.00    10.00       0.47 -999.99    0.47    0.00000     0.00  LINEAR    4.94178E-01     9.82    0.00000E+00     0.00
  -60.00    10.00      -0.07 -999.99   -0.07    0.00000     0.00  LINEAR    4.64473E-01    21.21    0.00000E+00     0.00
  -55.00    10.00      -0.71 -999.99   -0.71    0.00000     0.00  LINEAR    4.31365E-01    34.49    0.00000E+00     0.00
  -50.00    10.00      -1.46 -999.99   -1.46    0.00000     0.00  LINEAR    3.95599E-01    49.57    0.00000E+00     0.00
  -45.00    10.00      -2.33 -999.99   -2.33    0.00000     0.00  LINEAR    3.57877E-01    66.34    0.00000E+00     0.00
  -40.00    10.00      -3.33 -999.99   -3.33    0.00000     0.00  LINEAR    3.18824E-01    84.66    0.00000E+00     0.00
  -35.00    10.00      -4.49 -999.99   -4.49    0.00000     0.00  LINEAR    2.78968E-01   104.38    0.00000E+00     0.00
  -30.00    10.00      -5.85 -999.99   -5.85    0.00000     0.00  LINEAR    2.38727E-01   125.34    0.00000E+00     0.00
  -25.00    10.00      -7.45 -999.99   -7.45    0.00000     0.00  LINEAR    1.98413E-01   147.33    0.00000E+00     0.00
  -20.00    10.00      -9.42 -999.99   -9.42    0.00000     0.00  LINEAR    1.58237E-01   170.16    0.00000E+00     0.00
  -15.00    10.00     -11.94 -999.99  -11.94    0.00000     0.00  LINEAR    1.18314E-01  -166.37    0.00000E+00     0.00
  -10.00    10.00     -15.49 -999.99  -15.49    0.00000     0.00  LINEAR    7.86753E-02  -142.45    0.00000E+00     0.00
   -5.00    10.00     -21.52 -999.99  -21.52    0.00000     0.00  LINEAR    3.92731E-02  -118.26    0.00000E+00     0.00
    0.00    10.00    -999.99 -999.99 -999.99    0.00000     0.00            0.00000E+00     0.00    0.00000E+00     0.00
 -180.00    15.00    -999.99 -999.99 -999.99    0.00000     0.00            4.59127E-12    86.05    0.00000E+00     0.00
 -175.00    15.00     -21.52 -999.99  -21.52    0.00000     0.00  LINEAR    3.92667E-02  -130.21    0.00000E+00     0.00
 -170.00    15.00     -15.49 -999.99  -15.49    0.00000     0.00  LINEAR    7.86292E-02  -166.36    0.00000E+00     0.00
 -165.00    15.00     -11.96 -999.99  -11.96    0.00000     0.00  LINEAR    1.18147E-01   157.81    0.00000E+00     0.00
 -160.00    15.00      -9.44 -999.99   -9.44    0.00000     0.00  LINEAR    1.57814E-01   122.60    0.00000E+00     0.00
 -155.00    15.00      -7.49 -999.99   -7.49    0.00000     0.00  LINEAR    1.97585E-01    88.39    0.00000E+00     0.00
 -150.00    15.00      -5.90 -999.99   -5.90    0.00000     0.00  LINEAR    2.37385E-01    55.57    0.00000E+00     0.00
 -145.00    15.00      -4.55 -999.99   -4.55    0.00000     0.00  LINEAR    2.77078E-01    24.47    0.00000E+00     0.00
 -140.00    15.00      -3.40 -999.99   -3.40    0.00000     0.00  LINEAR    3.16414E-01    -4.66    0.00000E+00     0.00
 -135.00    15.00      -2.40 -999.99   -2.40    0.00000     0.00  LINEAR    3.54987E-01   -31.63    0.00000E+00     0.00
 -130.00    15.00      -1.53 -999.99   -1.53    0.00000     0.00  LINEAR    3.92229E-01   -56.30    0.00000E+00     0.00
 -125.00    15.00      -0.79 -999.99   -0.79    0.00000     0.00  LINEAR    4.27441E-01   -78.53    0.00000E+00     0.00
 -120.00    15.00      -0.15 -999.99   -0.15    0.00000     0.00  LINEAR    4.59868E-01   -98.17    0.00000E+00     0.00
 -115.00    15.00       0.38 -999.99    0.38    0.00000     0.00  LINEAR    4.88762E-01  -115.10    0.00000E+00     0.00
 -110.00    15.00       0.81 -999.99    0.81    0.00000     0.00  LINEAR    5.13436E-01  -129.16    0.00000E+00     0.00
 -105.00    15.00       1.13 -999.99    1.13    0.00000     0.00  LINEAR    5.33291E-01  -140.24    0.00000E+00     0.00
 -100.00    15.00       1.37 -999.99    1.37    0.00000     0.00  LINEAR    5.47841E-01  -148.22    0.00000E+00     0.00
  -95.00    15.00       1.51 -999.99    1.51    0.00000     0.00  LINEAR    5.56722E-01  -153.05    0.00000E+00     0.00
  -90.00    15.00       1.55 -999.99    1.55    0.00000     0.00  LINEAR    5.59708E-01  -154.66    0.00000E+00     0.00
  -85.00    15.00       1.51 -999.99    1.51    0.00000     0.00  LINEAR    5.56722E-01  -153.05    0.00000E+00     0.00
  -80.00    15.00       1.37 -999.99    1.37    0.00000     0.00  LINEAR    5.47841E-01  -148.22    0.00000E+00     0.00
  -75.00    15.00       1.13 -999.99    1.13    0.00000     0.00  LINEAR    5.33291E-01  -140.24    0.00000E+00     0.00
  -70.00    15.00       0.81 -999.99    0.81    0.00000     0.00  LINEAR    5.13436E-01  -129.16    0.00000E+00     0.00
  -65.00    15.00       0.38 -999.99    0.38    0.00000     0.00  LINEAR    4.88762E-01  -115.10    0.00000E+00     0.00
  -60.00    15.00      -0.15 -999.99   -0.15    0.00000     0.00  LINEAR    4.59868E-01   -98.17    0.00000E+00     0.00
  -55.00    15.00      -0.79 -999.99   -0.79    0.00000     0.00  LINEAR    4.27441E-01   -78.53    0.00000E+00     0.00
  -50.00    15.00      -1.53 -999.99   -1.53    0.00000     0.00  LINEAR    3.92229E-01   -56.30    0.00000E+00     0.00
  -45.00    15.00      -2.40 -999.99   -2.40    0.00000     0.00  LINEAR    3.54987E-01   -31.63    0.00000E+00     0.00
  -40.00    15.00      -3.40 -999.99   -3.40    0.00000     0.00  LINEAR    3.16414E-01    -4.66    0.00000E+00     0.00
  -35.00    15.00      -4.55 -999.99   -4.55    0.00000     0.00  LINEAR    2.77078E-01    24.47    0.00000E+00     0.00
  -30.00    15.00      -5.90 -999.99   -5.90    0.00000     0.00  LINEAR    2.37385E-01    55.57    0.00000E+00     0.00
  -25.00    15.00      -7.49 -999.99   -7.49    0.00000     0.00  LINEAR    1.97585E-01    88.39    0.00000E+00     0.00
  -20.00    15.00      -9.44 -999.99   -9.44    0.00000     0.00  LINEAR    1.57814E-01   122.60    0.00000E+00     0.00
  -15.00    15.00     -11.96 -999.99  -11.96    0.00000     0.00  LINEAR    1.18147E-01   157.81    0.00000E+00     0.00
  -10.00    15.00     -15.49 -999.99  -15.49    0.00000     0.00  LINEAR    7.86292E-02  -166.36    0.00000E+00     0.00
   -5.00    15.00     -21.52 -999.99  -21.52    0.00000     0.00  LINEAR    3.92667E-02  -130.21    0.00000E+00     0.00
    0.00    15.00    -999.99 -999.99 -999.99    0.00000     0.00            0.00000E+00     0.00    0.00000E+00     0.00
 -180.00    20.00    -999.99 -999.99 -999.99    0.00000     0.00            4.59127E-12    86.05    0.00000E+00     0.00
 -175.00    20.00     -21.53 -999.99  -21.53    0.00000     0.00  LINEAR    3.92587E-02  -141.89    0.00000E+00     0.00
 -170.00    20.00     -15.50 -999.99  -15.50    0.00000     0.00  LINEAR    7.85627E-02   170.19    0.00000E+00     0.00
 -165.00    20.00     -11.97 -999.99  -11.97    0.00000     0.00  LINEAR    1.17898E-01   122.61    0.00000E+00     0.00
 -160.00    20.00      -9.47 -999.99   -9.47    0.00000     0.00  LINEAR    1.57233E-01    75.96    0.00000E+00     0.00
 -155.00    20.00      -7.53 -999.99   -7.53    0.00000     0.00  LINEAR    1.96603E-01    30.88    0.00000E+00     0.00
 -150.00    20.00      -5.94 -999.99   -5.94    0.00000     0.00  LINEAR    2.36040E-01   -12.14    0.00000E+00     0.00
 -145.00    20.00      -4.61 -999.99   -4.61    0.00000     0.00  LINEAR    2.75389E-01   -52.85    0.00000E+00     0.00
 -140.00    20.00      -3.46 -999.99   -3.46    0.00000     0.00  LINEAR    3.14177E-01   -91.13    0.00000E+00     0.00
 -135.00    20.00      -2.48 -999.99   -2.48    0.00000     0.00  LINEAR    3.51681E-01  -126.84    0.00000E+00     0.00
 -130.00    20.00      -1.65 -999.99   -1.65    0.00000     0.00  LINEAR    3.87158E-01  -159.76    0.00000E+00     0.00
 -125.00    20.00      -0.94 -999.99   -0.94    0.00000     0.00  LINEAR    4.20023E-01   170.39    0.00000E+00     0.00
 -120.00    20.00      -0.34 -999.99   -0.34    0.00000     0.00  LINEAR    4.49852E-01   143.95    0.00000E+00     0.00
 -115.00    20.00       0.15 -999.99    0.15    0.00000     0.00  LINEAR    4.76265E-01   121.18    0.00000E+00     0.00
 -110.00    20.00       0.55 -999.99    0.55    0.00000     0.00  LINEAR    4.98839E-01   102.32    0.00000E+00     0.00
 -105.00    20.00       0.87 -999.99    0.87    0.00000     0.00  LINEAR    5.17097E-01    87.51    0.00000E+00     0.00
 -100.00    20.00       1.09 -999.99    1.09    0.00000     0.00  LINEAR    5.30559E-01    76.86    0.00000E+00     0.00
  -95.00    20.00       1.22 -999.99    1.22    0.00000     0.00  LINEAR    5.38817E-01    70.45    0.00000E+00     0.00
  -90.00    20.00       1.27 -999.99    1.27    0.00000     0.00  LINEAR    5.41601E-01    68.30    0.00000E+00     0.00
  -85.00    20.00       1.22 -999.99    1.22    0.00000     0.00  LINEAR    5.38817E-01    70.45    0.00000E+00     0.00
  -80.00    20.00       1.09 -999.99    1.09    0.00000     0.00  LINEAR    5.30559E-01    76.86    0.00000E+00     0.00
  -75.00    20.00       0.87 -999.99    0.87    0.00000     0.00  LINEAR    5.17097E-01    87.51    0.00000E+00     0.00
  -70.00    20.00       0.55 -999.99    0.55    0.00000     0.00  LINEAR    4.98839E-01   102.32    0.00000E+00     0.00
  -65.00    20.00       0.15 -999.99    0.15    0.00000     0.00  LINEAR    4.76265E-01   121.18    0.00000E+00     0.00
  -60.00    20.00      -0.34 -999.99   -0.34    0.00000     0.00  LINEAR    4.49852E-01   143.95    0.00000E+00     0.00
  -55.00    20.00      -0.94 -999.99   -0.94    0.00000     0.00  LINEAR    4.20023E-01   170.39    0.00000E+00     0.00
  -50.00    20.00      -1.65 -999.99   -1.65    0.00000     0.00  LINEAR    3.87158E-01  -159.76    0.00000E+00     0.00
  -45.00    20.00      -2.48 -999.99   -2.48    0.00000     0.00  LINEAR    3.51681E-01  -126.84    0.00000E+00     0.00
  -40.00    20.00      -3.46 -999.99   -3.46    0.00000     0.00  LINEAR    3.14177E-01   -91.13    0.00000E+00     0.00
  -35.00    20.00      -4.61 -999.99   -4.61    0.00000     0.00  LINEAR    2.75389E-01   -52.85    0.00000E+00     0.00
  -30.00    20.00      -5.94 -999.99   -5.94    0.00000     0.00  LINEAR    2.36040E-01   -12.14    0.00000E+00     0.00
  -25.00    20.00      -7.53 -999.99   -7.53    0.00000     0.00  LINEAR    1.96603E-01    30.88    0.00000E+00     0.00
  -20.00    20.00      -9.47 -999.99   -9.47    0.00000     0.00  LINEAR    1.57233E-01    75.96    0.00000E+00     0.00
  -15.00    20.00     -11.97 -999.99  -11.97    0.00000     0.00  LINEAR    1.17898E-01   122.61    0.00000E+00     0.00
  -10.00    20.00     -15.50 -999.99  -15.50    0.00000     0.00  LINEAR    7.85627E-02   170.19    0.00000E+00     0.00
   -5.00    20.00     -21.53 -999.99  -21.53    0.00000     0.00  LINEAR    3.92587E-02  -141.89    0.00000E+00     0.00
    0.00    20.00    -999.99 -999.99 -999.99    0.00000     0.00            0.00000E+00     0.00    0.00000E+00     0.00
 -180.00    25.00    -999.99 -999.99 -999.99    0.00000     0.00            4.59127E-12    86.05    0.00000E+00     0.00
 -175.00    25.00     -21.53 -999.99  -21.53    0.00000     0.00  LINEAR    3.92491E-02  -153.23    0.00000E+00     0.00
 -170.00    25.00     -15.51 -999.99  -15.51    0.00000     0.00  LINEAR    7.84745E-02   147.38    0.00000E+00     0.00
 -165.00    25.00     -12.00 -999.99  -12.00    0.00000     0.00  LINEAR    1.17587E-01    88.42    0.00000E+00     0.00
 -160.00    25.00      -9.51 -999.99   -9.51    0.00000     0.00  LINEAR    1.56616E-01    30.90    0.00000E+00     0.00
 -155.00    25.00      -7.57 -999.99   -7.57    0.00000     0.00  LINEAR    1.95725E-01   -24.42    0.00000E+00     0.00
 -150.00    25.00      -5.99 -999.99   -5.99    0.00000     0.00  LINEAR    2.34822E-01   -77.27    0.00000E+00     0.00
 -145.00    25.00      -4.67 -999.99   -4.67    0.00000     0.00  LINEAR    2.73237E-01  -127.70    0.00000E+00     0.00
 -140.00    25.00      -3.58 -999.99   -3.58    0.00000     0.00  LINEAR    3.10069E-01  -175.54    0.00000E+00     0.00
 -135.00    25.00      -2.65 -999.99   -2.65    0.00000     0.00  LINEAR    3.44866E-01   139.66    0.00000E+00     0.00
 -130.00    25.00      -1.86 -999.99   -1.86    0.00000     0.00  LINEAR    3.77718E-01    98.52    0.00000E+00     0.00
 -125.00    25.00      -1.18 -999.99   -1.18    0.00000     0.00  LINEAR    4.08761E-01    61.54    0.00000E+00     0.00
 -120.00    25.00      -0.58 -999.99   -0.58    0.00000     0.00  LINEAR    4.37731E-01    29.06    0.00000E+00     0.00
 -115.00    25.00      -0.08 -999.99   -0.08    0.00000     0.00  LINEAR    4.63941E-01     1.27    0.00000E+00     0.00
 -110.00    25.00       0.34 -999.99    0.34    0.00000     0.00  LINEAR    4.86528E-01   -21.71    0.00000E+00     0.00
 -105.00    25.00       0.66 -999.99    0.66    0.00000     0.00  LINEAR    5.04729E-01   -39.76    0.00000E+00     0.00
 -100.00    25.00       0.88 -999.99    0.88    0.00000     0.00  LINEAR    5.18012E-01   -52.76    0.00000E+00     0.00
  -95.00    25.00       1.02 -999.99    1.02    0.00000     0.00  LINEAR    5.26075E-01   -60.60    0.00000E+00     0.00
  -90.00    25.00       1.06 -999.99    1.06    0.00000     0.00  LINEAR    5.28776E-01   -63.23    0.00000E+00     0.00
  -85.00    25.00       1.02 -999.99    1.02    0.00000     0.00  LINEAR    5.26075E-01   -60.60    0.00000E+00     0.00
  -80.00    25.00       0.88 -999.99    0.88    0.00000     0.00  LINEAR    5.18012E-01   -52.76    0.00000E+00     0.00
  -75.00    25.00       0.66 -999.99    0.66    0.00000     0.00  LINEAR    5.04729E-01   -39.76    0.00000E+00     0.00
  -70.00    25.00       0.34 -999.99    0.34    0.00000     0.00  LINEAR    4.86528E-01   -21.71    0.00000E+00     0.00
  -65.00    25.00      -0.08 -999.99   -0.08    0.00000     0.00  LINEAR    4.63941E-01     1.27    0.00000E+00     0.00
  -60.00    25.00      -0.58 -999.99   -0.58    0.00000     0.00  LINEAR    4.37731E-01    29.06    0.00000E+00     0.00
  -55.00    25.00      -1.18 -999.99   -1.18    0.00000     0.00  LINEAR    4.08761E-01    61.54    0.00000E+00     0.00
  -50.00    25.00      -1.86 -999.99   -1.86    0.00000     0.00  LINEAR    3.77718E-01    98.52    0.00000E+00     0.00
  -45.00    25.00      -2.65 -999.99   -2.65    0.00000     0.00  LINEAR    3.44866E-01   139.66    0.00000E+00     0.00
  -40.00    25.00      -3.58 -999.99   -3.58    0.00000     0.00  LINEAR    3.10069E-01  -175.54    0.00000E+00     0.00
  -35.00    25.00      -4.67 -999.99   -4.67    0.00000     0.00  LINEAR    2.73237E-01  -127.70    0.00000E+00     0.00
  -30.00    25.00      -5.99 -999.99   -5.99    0.00000     0.00  LINEAR    2.34822E-01   -77.27    0.00000E+00     0.00
  -25.00    25.00      -7.57 -999.99   -7.57    0.00000     0.00  LINEAR    1.95725E-01   -24.42    0.00000E+00     0.00
  -20.00    25.00      -9.51 -999.99   -9.51    0.00000     0.00  LINEAR    1.56616E-01    30.90    0.00000E+00     0.00
  -15.00    25.00     -12.00 -999.99  -12.00    0.00000     0.00  LINEAR    1.17587E-01    88.42    0.00000E+00     0.00
  -10.00    25.00     -15.51 -999.99  -15.51    0.00000     0.00  LINEAR    7.84745E-02   147.38    0.00000E+00     0.00
   -5.00    25.00     -21.53 -999.99  -21.53    0.00000     0.00  LINEAR    3.92491E-02  -153.23    0.00000E+00     0.00
    0.00    25.00    -999.99 -999.99 -999.99    0.00000     0.00            0.00000E+00     0.00    0.00000E+00     0.00
 -180.00    30.00    -999.99 -999.99 -999.99    0.00000     0.00            4.59127E-12    86.05    0.00000E+00     0.00
 -175.00    30.00     -21.53 -999.99  -21.53    0.00000     0.00  LINEAR    3.92378E-02  -164.14    0.00000E+00     0.00
 -170.00    30.00     -15.52 -999.99  -15.52    0.00000     0.00  LINEAR    7.83672E-02   125.40    0.00000E+00     0.00
 -165.00    30.00     -12.02 -999.99  -12.02    0.00000     0.00  LINEAR    1.17255E-01    55.62    0.00000E+00     0.00
 -160.00    30.00      -9.54 -999.99   -9.54    0.00000     0.00  LINEAR    1.56064E-01   -12.10    0.00000E+00     0.00
 -155.00    30.00      -7.61 -999.99   -7.61    0.00000     0.00  LINEAR    1.94900E-01   -77.25    0.00000E+00     0.00
 -150.00    30.00      -6.06 -999.99   -6.06    0.00000     0.00  LINEAR    2.33016E-01  -140.05    0.00000E+00     0.00
 -145.00    30.00      -4.80 -999.99   -4.80    0.00000     0.00  LINEAR    2.69316E-01   159.59    0.00000E+00     0.00
 -140.00    30.00      -3.75 -999.99   -3.75    0.00000     0.00  LINEAR    3.03781E-01   102.45    0.00000E+00     0.00
 -135.00    30.00      -2.84 -999.99   -2.84    0.00000     0.00  LINEAR    3.37282E-01    49.51    0.00000E+00     0.00
 -130.00    30.00      -2.04 -999.99   -2.04    0.00000     0.00  LINEAR    3.70102E-01     1.34    0.00000E+00     0.00
 -125.00    30.00      -1.34 -999.99   -1.34    0.00000     0.00  LINEAR    4.01277E-01   -41.89    0.00000E+00     0.00
 -120.00    30.00      -0.75 -999.99   -0.75    0.00000     0.00  LINEAR    4.29251E-01   -80.12    0.00000E+00     0.00
 -115.00    30.00      -0.28 -999.99   -0.28    0.00000     0.00  LINEAR    4.52894E-01  -113.16    0.00000E+00     0.00
 -110.00    30.00       0.07 -999.99    0.07    0.00000     0.00  LINEAR    4.71883E-01  -140.72    0.00000E+00     0.00
 -105.00    30.00       0.34 -999.99    0.34    0.00000     0.00  LINEAR    4.86393E-01  -162.49    0.00000E+00     0.00
 -100.00    30.00       0.52 -999.99    0.52    0.00000     0.00  LINEAR    4.96672E-01  -178.21    0.00000E+00     0.00
  -95.00    30.00       0.62 -999.99    0.62    0.00000     0.00  LINEAR    5.02835E-01   172.29    0.00000E+00     0.00
  -90.00    30.00       0.66 -999.99    0.66    0.00000     0.00  LINEAR    5.04892E-01   169.12    0.00000E+00     0.00
  -85.00    30.00       0.62 -999.99    0.62    0.00000     0.00  LINEAR    5.02835E-01   172.29    0.00000E+00     0.00
  -80.00    30.00       0.52 -999.99    0.52    0.00000     0.00  LINEAR    4.96672E-01  -178.21    0.00000E+00     0.00
  -75.00    30.00       0.34 -999.99    0.34    0.00000     0.00  LINEAR    4.86393E-01  -162.49    0.00000E+00     0.00
  -70.00    30.00       0.07 -999.99    0.07    0.00000     0.00  LINEAR    4.71883E-01  -140.72    0.00000E+00     0.00
  -65.00    30.00      -0.28 -999.99   -0.28    0.00000     0.00  LINEAR    4.52894E-01  -113.16    0.00000E+00     0.00
  -60.00    30.00      -0.75 -999.99   -0.75    0.00000     0.00  LINEAR    4.29251E-01   -80.12    0.00000E+00     0.00
  -55.00    30.00      -1.34 -999.99   -1.34    0.00000     0.00  LINEAR    4.01277E-01   -41.89    0.00000E+00     0.00
  -50.00    30.00      -2.04 -999.99   -2.04    0.00000     0.00  LINEAR    3.70102E-01     1.34    0.00000E+00     0.00
  -45.00    30.00      -2.84 -999.99   -2.84    0.00000     0.00  LINEAR    3.37282E-01    49.51    0.00000E+00     0.00
  -40.00    30.00      -3.75 -999.99   -3.75    0.00000     0.00  LINEAR    3.03781E-01   102.45    0.00000E+00     0.00
  -35.00    30.00      -4.80 -999.99   -4.80    0.00000     0.00  LINEAR    2.69316E-01   159.59    0.00000E+00     0.00
  -30.00    30.00      -6.06 -999.99   -6.06    0.00000     0.00  LINEAR    2.33016E-01  -140.05    0.00000E+00     0.00
  -25.00    30.00      -7.61 -999.99   -7.61    0.00000     0.00  LINEAR    1.94900E-01   -77.25    0.00000E+00     0.00
  -20.00    30.00      -9.54 -999.99   -9.54    0.00000     0.00  LINEAR    1.56064E-01   -12.10    0.00000E+00     0.00
  -15.00    30.00     -12.02 -999.99  -12.02    0.00000     0.00  LINEAR    1.17255E-01    55.62    0.00000E+00     0.00
  -10.00    30.00     -15.52 -999.99  -15.52    0.00000     0.00  LINEAR    7.83672E-02   125.40    0.00000E+00     0.00
   -5.00    30.00     -21.53 -999.99  -21.53    0.00000     0.00  LINEAR    3.92378E-02  -164.14    0.00000E+00     0.00
    0.00    30.00    -999.99 -999.99 -999.99    0.00000     0.00            0.00000E+00     0.00    0.00000E+00     0.00
 -180.00    35.00    -999.99 -999.99 -999.99    0.00000     0.00            4.59127E-12    86.05    0.00000E+00     0.00
 -175.00    35.00     -21.53 -999.99  -21.53    0.00000     0.00  LINEAR    3.92250E-02  -174.53    0.00000E+00     0.00
 -170.00    35.00     -15.54 -999.99  -15.54    0.00000     0.00  LINEAR    7.82470E-02   104.47    0.00000E+00     0.00
 -165.00    35.00     -12.05 -999.99  -12.05    0.00000     0.00  LINEAR    1.16938E-01    24.54    0.00000E+00     0.00
 -160.00    35.00      -9.57 -999.99   -9.57    0.00000     0.00  LINEAR    1.55577E-01   -52.79    0.00000E+00     0.00
 -155.00    35.00      -7.66 -999.99   -7.66    0.00000     0.00  LINEAR    1.93773E-01  -127.65    0.00000E+00     0.00
 -150.00    35.00      -6.17 -999.99   -6.17    0.00000     0.00  LINEAR    2.30112E-01   159.61    0.00000E+00     0.00
 -145.00    35.00      -4.96 -999.99   -4.96    0.00000     0.00  LINEAR    2.64529E-01    89.95    0.00000E+00     0.00
 -140.00    35.00      -3.90 -999.99   -3.90    0.00000     0.00  LINEAR    2.98546E-01    24.77    0.00000E+00     0.00
 -135.00    35.00      -2.97 -999.99   -2.97    0.00000     0.00  LINEAR    3.32335E-01   -35.34    0.00000E+00     0.00
 -130.00    35.00      -2.19 -999.99   -2.19    0.00000     0.00  LINEAR    3.63720E-01   -90.50    0.00000E+00     0.00
[...]
  -70.00   340.00       0.56 -999.99    0.56    0.00000     0.00  LINEAR    4.99028E-01    64.14    0.00000E+00     0.00
  -65.00   340.00       0.16 -999.99    0.16    0.00000     0.00  LINEAR    4.76720E-01    45.70    0.00000E+00     0.00
  -60.00   340.00      -0.33 -999.99   -0.33    0.00000     0.00  LINEAR    4.50499E-01    23.42    0.00000E+00     0.00
  -55.00   340.00      -0.92 -999.99   -0.92    0.00000     0.00  LINEAR    4.20711E-01    -2.49    0.00000E+00     0.00
  -50.00   340.00      -1.63 -999.99   -1.63    0.00000     0.00  LINEAR    3.87698E-01   -31.79    0.00000E+00     0.00
  -45.00   340.00      -2.48 -999.99   -2.48    0.00000     0.00  LINEAR    3.51929E-01   -64.17    0.00000E+00     0.00
  -40.00   340.00      -3.46 -999.99   -3.46    0.00000     0.00  LINEAR    3.14111E-01   -99.34    0.00000E+00     0.00
  -35.00   340.00      -4.61 -999.99   -4.61    0.00000     0.00  LINEAR    2.75126E-01  -137.10    0.00000E+00     0.00
  -30.00   340.00      -5.95 -999.99   -5.95    0.00000     0.00  LINEAR    2.35766E-01  -177.32    0.00000E+00     0.00
  -25.00   340.00      -7.54 -999.99   -7.54    0.00000     0.00  LINEAR    1.96457E-01   140.10    0.00000E+00     0.00
  -20.00   340.00      -9.47 -999.99   -9.47    0.00000     0.00  LINEAR    1.57234E-01    95.41    0.00000E+00     0.00
  -15.00   340.00     -11.97 -999.99  -11.97    0.00000     0.00  LINEAR    1.17973E-01    49.07    0.00000E+00     0.00
  -10.00   340.00     -15.49 -999.99  -15.49    0.00000     0.00  LINEAR    7.86282E-02     1.72    0.00000E+00     0.00
   -5.00   340.00     -21.52 -999.99  -21.52    0.00000     0.00  LINEAR    3.92805E-02   -46.06    0.00000E+00     0.00
    0.00   340.00    -999.99 -999.99 -999.99    0.00000     0.00            0.00000E+00     0.00    0.00000E+00     0.00
 -180.00   345.00    -999.99 -999.99 -999.99    0.00000     0.00            4.59127E-12    86.05    0.00000E+00     0.00
 -175.00   345.00     -21.52 -999.99  -21.52    0.00000     0.00  LINEAR    3.92838E-02   -57.72    0.00000E+00     0.00
 -170.00   345.00     -15.49 -999.99  -15.49    0.00000     0.00  LINEAR    7.86881E-02   -21.66    0.00000E+00     0.00
 -165.00   345.00     -11.95 -999.99  -11.95    0.00000     0.00  LINEAR    1.18246E-01    14.03    0.00000E+00     0.00
 -160.00   345.00      -9.44 -999.99   -9.44    0.00000     0.00  LINEAR    1.57915E-01    49.05    0.00000E+00     0.00
 -155.00   345.00      -7.49 -999.99   -7.49    0.00000     0.00  LINEAR    1.97625E-01    83.02    0.00000E+00     0.00
 -150.00   345.00      -5.90 -999.99   -5.90    0.00000     0.00  LINEAR    2.37301E-01   115.57    0.00000E+00     0.00
 -145.00   345.00      -4.56 -999.99   -4.56    0.00000     0.00  LINEAR    2.76840E-01   146.37    0.00000E+00     0.00
 -140.00   345.00      -3.41 -999.99   -3.41    0.00000     0.00  LINEAR    3.16049E-01   175.18    0.00000E+00     0.00
 -135.00   345.00      -2.41 -999.99   -2.41    0.00000     0.00  LINEAR    3.54574E-01  -158.17    0.00000E+00     0.00
 -130.00   345.00      -1.54 -999.99   -1.54    0.00000     0.00  LINEAR    3.91871E-01  -133.83    0.00000E+00     0.00
 -125.00   345.00      -0.79 -999.99   -0.79    0.00000     0.00  LINEAR    4.27232E-01  -111.92    0.00000E+00     0.00
 -120.00   345.00      -0.15 -999.99   -0.15    0.00000     0.00  LINEAR    4.59866E-01   -92.57    0.00000E+00     0.00
 -115.00   345.00       0.38 -999.99    0.38    0.00000     0.00  LINEAR    4.88981E-01   -75.91    0.00000E+00     0.00
 -110.00   345.00       0.81 -999.99    0.81    0.00000     0.00  LINEAR    5.13854E-01   -62.08    0.00000E+00     0.00
 -105.00   345.00       1.14 -999.99    1.14    0.00000     0.00  LINEAR    5.33867E-01   -51.19    0.00000E+00     0.00
 -100.00   345.00       1.38 -999.99    1.38    0.00000     0.00  LINEAR    5.48526E-01   -43.35    0.00000E+00     0.00
  -95.00   345.00       1.52 -999.99    1.52    0.00000     0.00  LINEAR    5.57469E-01   -38.61    0.00000E+00     0.00
  -90.00   345.00       1.57 -999.99    1.57    0.00000     0.00  LINEAR    5.60475E-01   -37.03    0.00000E+00     0.00
  -85.00   345.00       1.52 -999.99    1.52    0.00000     0.00  LINEAR    5.57469E-01   -38.61    0.00000E+00     0.00
  -80.00   345.00       1.38 -999.99    1.38    0.00000     0.00  LINEAR    5.48526E-01   -43.35    0.00000E+00     0.00
  -75.00   345.00       1.14 -999.99    1.14    0.00000     0.00  LINEAR    5.33867E-01   -51.19    0.00000E+00     0.00
  -70.00   345.00       0.81 -999.99    0.81    0.00000     0.00  LINEAR    5.13854E-01   -62.08    0.00000E+00     0.00
  -65.00   345.00       0.38 -999.99    0.38    0.00000     0.00  LINEAR    4.88981E-01   -75.91    0.00000E+00     0.00
  -60.00   345.00      -0.15 -999.99   -0.15    0.00000     0.00  LINEAR    4.59866E-01   -92.57    0.00000E+00     0.00
  -55.00   345.00      -0.79 -999.99   -0.79    0.00000     0.00  LINEAR    4.27232E-01  -111.92    0.00000E+00     0.00
  -50.00   345.00      -1.54 -999.99   -1.54    0.00000     0.00  LINEAR    3.91871E-01  -133.83    0.00000E+00     0.00
  -45.00   345.00      -2.41 -999.99   -2.41    0.00000     0.00  LINEAR    3.54574E-01  -158.17    0.00000E+00     0.00
  -40.00   345.00      -3.41 -999.99   -3.41    0.00000     0.00  LINEAR    3.16049E-01   175.18    0.00000E+00     0.00
  -35.00   345.00      -4.56 -999.99   -4.56    0.00000     0.00  LINEAR    2.76840E-01   146.37    0.00000E+00     0.00
  -30.00   345.00      -5.90 -999.99   -5.90    0.00000     0.00  LINEAR    2.37301E-01   115.57    0.00000E+00     0.00
  -25.00   345.00      -7.49 -999.99   -7.49    0.00000     0.00  LINEAR    1.97625E-01    83.02    0.00000E+00     0.00
  -20.00   345.00      -9.44 -999.99   -9.44    0.00000     0.00  LINEAR    1.57915E-01    49.05    0.00000E+00     0.00
  -15.00   345.00     -11.95 -999.99  -11.95    0.00000     0.00  LINEAR    1.18246E-01    14.03    0.00000E+00     0.00
  -10.00   345.00     -15.49 -999.99  -15.49    0.00000     0.00  LINEAR    7.86881E-02   -21.66    0.00000E+00     0.00
   -5.00   345.00     -21.52 -999.99  -21.52    0.00000     0.00  LINEAR    3.92838E-02   -57.72    0.00000E+00     0.00
    0.00   345.00    -999.99 -999.99 -999.99    0.00000     0.00            0.00000E+00     0.00    0.00000E+00     0.00
 -180.00   350.00    -999.99 -999.99 -999.99    0.00000     0.00            4.59127E-12    86.05    0.00000E+00     0.00
 -175.00   350.00     -21.52 -999.99  -21.52    0.00000     0.00  LINEAR    3.92849E-02   -69.65    0.00000E+00     0.00
 -170.00   350.00     -15.48 -999.99  -15.48    0.00000     0.00  LINEAR    7.87196E-02   -45.51    0.00000E+00     0.00
 -165.00   350.00     -11.94 -999.99  -11.94    0.00000     0.00  LINEAR    1.18404E-01   -21.67    0.00000E+00     0.00
 -160.00   350.00      -9.41 -999.99   -9.41    0.00000     0.00  LINEAR    1.58371E-01     1.69    0.00000E+00     0.00
 -155.00   350.00      -7.45 -999.99   -7.45    0.00000     0.00  LINEAR    1.98576E-01    24.40    0.00000E+00     0.00
 -150.00   350.00      -5.84 -999.99   -5.84    0.00000     0.00  LINEAR    2.38889E-01    46.25    0.00000E+00     0.00
 -145.00   350.00      -4.49 -999.99   -4.49    0.00000     0.00  LINEAR    2.79090E-01    67.04    0.00000E+00     0.00
 -140.00   350.00      -3.33 -999.99   -3.33    0.00000     0.00  LINEAR    3.18867E-01    86.60    0.00000E+00     0.00
 -135.00   350.00      -2.33 -999.99   -2.33    0.00000     0.00  LINEAR    3.57808E-01   104.75    0.00000E+00     0.00
 -130.00   350.00      -1.46 -999.99   -1.46    0.00000     0.00  LINEAR    3.95401E-01   121.34    0.00000E+00     0.00
 -125.00   350.00      -0.71 -999.99   -0.71    0.00000     0.00  LINEAR    4.31035E-01   136.25    0.00000E+00     0.00
 -120.00   350.00      -0.07 -999.99   -0.07    0.00000     0.00  LINEAR    4.64024E-01   149.38    0.00000E+00     0.00
 -115.00   350.00       0.46 -999.99    0.46    0.00000     0.00  LINEAR    4.93633E-01   160.63    0.00000E+00     0.00
 -110.00   350.00       0.90 -999.99    0.90    0.00000     0.00  LINEAR    5.19119E-01   169.94    0.00000E+00     0.00
 -105.00   350.00       1.24 -999.99    1.24    0.00000     0.00  LINEAR    5.39785E-01   177.24    0.00000E+00     0.00
 -100.00   350.00       1.48 -999.99    1.48    0.00000     0.00  LINEAR    5.55023E-01  -177.51    0.00000E+00     0.00
  -95.00   350.00       1.63 -999.99    1.63    0.00000     0.00  LINEAR    5.64364E-01  -174.35    0.00000E+00     0.00
  -90.00   350.00       1.68 -999.99    1.68    0.00000     0.00  LINEAR    5.67512E-01  -173.29    0.00000E+00     0.00
  -85.00   350.00       1.63 -999.99    1.63    0.00000     0.00  LINEAR    5.64364E-01  -174.35    0.00000E+00     0.00
  -80.00   350.00       1.48 -999.99    1.48    0.00000     0.00  LINEAR    5.55023E-01  -177.51    0.00000E+00     0.00
  -75.00   350.00       1.24 -999.99    1.24    0.00000     0.00  LINEAR    5.39785E-01   177.24    0.00000E+00     0.00
  -70.00   350.00       0.90 -999.99    0.90    0.00000     0.00  LINEAR    5.19119E-01   169.94    0.00000E+00     0.00
  -65.00   350.00       0.46 -999.99    0.46    0.00000     0.00  LINEAR    4.93633E-01   160.63    0.00000E+00     0.00
  -60.00   350.00      -0.07 -999.99   -0.07    0.00000     0.00  LINEAR    4.64024E-01   149.38    0.00000E+00     0.00
  -55.00   350.00      -0.71 -999.99   -0.71    0.00000     0.00  LINEAR    4.31035E-01   136.25    0.00000E+00     0.00
  -50.00   350.00      -1.46 -999.99   -1.46    0.00000     0.00  LINEAR    3.95401E-01   121.34    0.00000E+00     0.00
  -45.00   350.00      -2.33 -999.99   -2.33    0.00000     0.00  LINEAR    3.57808E-01   104.75    0.00000E+00     0.00
  -40.00   350.00      -3.33 -999.99   -3.33    0.00000     0.00  LINEAR    3.18867E-01    86.60    0.00000E+00     0.00
  -35.00   350.00      -4.49 -999.99   -4.49    0.00000     0.00  LINEAR    2.79090E-01    67.04    0.00000E+00     0.00
  -30.00   350.00      -5.84 -999.99   -5.84    0.00000     0.00  LINEAR    2.38889E-01    46.25    0.00000E+00     0.00
  -25.00   350.00      -7.45 -999.99   -7.45    0.00000     0.00  LINEAR    1.98576E-01    24.40    0.00000E+00     0.00
  -20.00   350.00      -9.41 -999.99   -9.41    0.00000     0.00  LINEAR    1.58371E-01     1.69    0.00000E+00     0.00
  -15.00   350.00     -11.94 -999.99  -11.94    0.00000     0.00  LINEAR    1.18404E-01   -21.67    0.00000E+00     0.00
  -10.00   350.00     -15.48 -999.99  -15.48    0.00000     0.00  LINEAR    7.87196E-02   -45.51    0.00000E+00     0.00
   -5.00   350.00     -21.52 -999.99  -21.52    0.00000     0.00  LINEAR    3.92849E-02   -69.65    0.00000E+00     0.00
    0.00   350.00    -999.99 -999.99 -999.99    0.00000     0.00            0.00000E+00     0.00    0.00000E+00     0.00
 -180.00   355.00    -999.99 -999.99 -999.99    0.00000     0.00            4.59127E-12    86.05    0.00000E+00     0.00
 -175.00   355.00     -21.52 -999.99  -21.52    0.00000     0.00  LINEAR    3.92842E-02   -81.76    0.00000E+00     0.00
 -170.00   355.00     -15.48 -999.99  -15.48    0.00000     0.00  LINEAR    7.87289E-02   -69.66    0.00000E+00     0.00
 -165.00   355.00     -11.93 -999.99  -11.93    0.00000     0.00  LINEAR    1.18461E-01   -57.74    0.00000E+00     0.00
 -160.00   355.00      -9.40 -999.99   -9.40    0.00000     0.00  LINEAR    1.58556E-01   -46.09    0.00000E+00     0.00
 -155.00   355.00      -7.43 -999.99   -7.43    0.00000     0.00  LINEAR    1.99009E-01   -34.79    0.00000E+00     0.00
 -150.00   355.00      -5.81 -999.99   -5.81    0.00000     0.00  LINEAR    2.39722E-01   -23.93    0.00000E+00     0.00
 -145.00   355.00      -4.45 -999.99   -4.45    0.00000     0.00  LINEAR    2.80484E-01   -13.59    0.00000E+00     0.00
 -140.00   355.00      -3.28 -999.99   -3.28    0.00000     0.00  LINEAR    3.20963E-01    -3.85    0.00000E+00     0.00
 -135.00   355.00      -2.26 -999.99   -2.26    0.00000     0.00  LINEAR    3.60706E-01     5.22    0.00000E+00     0.00
 -130.00   355.00      -1.38 -999.99   -1.38    0.00000     0.00  LINEAR    3.99147E-01    13.53    0.00000E+00     0.00
 -125.00   355.00      -0.62 -999.99   -0.62    0.00000     0.00  LINEAR    4.35621E-01    21.03    0.00000E+00     0.00
 -120.00   355.00       0.03 -999.99    0.03    0.00000     0.00  LINEAR    4.69394E-01    27.65    0.00000E+00     0.00
 -115.00   355.00       0.57 -999.99    0.57    0.00000     0.00  LINEAR    4.99695E-01    33.34    0.00000E+00     0.00
 -110.00   355.00       1.01 -999.99    1.01    0.00000     0.00  LINEAR    5.25763E-01    38.06    0.00000E+00     0.00
 -105.00   355.00       1.35 -999.99    1.35    0.00000     0.00  LINEAR    5.46886E-01    41.77    0.00000E+00     0.00
 -100.00   355.00       1.60 -999.99    1.60    0.00000     0.00  LINEAR    5.62453E-01    44.45    0.00000E+00     0.00
  -95.00   355.00       1.74 -999.99    1.74    0.00000     0.00  LINEAR    5.71991E-01    46.06    0.00000E+00     0.00
  -90.00   355.00       1.79 -999.99    1.79    0.00000     0.00  LINEAR    5.75205E-01    46.59    0.00000E+00     0.00
  -85.00   355.00       1.74 -999.99    1.74    0.00000     0.00  LINEAR    5.71991E-01    46.06    0.00000E+00     0.00
  -80.00   355.00       1.60 -999.99    1.60    0.00000     0.00  LINEAR    5.62453E-01    44.45    0.00000E+00     0.00
  -75.00   355.00       1.35 -999.99    1.35    0.00000     0.00  LINEAR    5.46886E-01    41.77    0.00000E+00     0.00
  -70.00   355.00       1.01 -999.99    1.01    0.00000     0.00  LINEAR    5.25763E-01    38.06    0.00000E+00     0.00
  -65.00   355.00       0.57 -999.99    0.57    0.00000     0.00  LINEAR    4.99695E-01    33.34    0.00000E+00     0.00
  -60.00   355.00       0.03 -999.99    0.03    0.00000     0.00  LINEAR    4.69394E-01    27.65    0.00000E+00     0.00
  -55.00   355.00      -0.62 -999.99   -0.62    0.00000     0.00  LINEAR    4.35621E-01    21.03    0.00000E+00     0.00
  -50.00   355.00      -1.38 -999.99   -1.38    0.00000     0.00  LINEAR    3.99147E-01    13.53    0.00000E+00     0.00
  -45.00   355.00      -2.26 -999.99   -2.26    0.00000     0.00  LINEAR    3.60706E-01     5.22    0.00000E+00     0.00
  -40.00   355.00      -3.28 -999.99   -3.28    0.00000     0.00  LINEAR    3.20963E-01    -3.85    0.00000E+00     0.00
  -35.00   355.00      -4.45 -999.99   -4.45    0.00000     0.00  LINEAR    2.80484E-01   -13.59    0.00000E+00     0.00
  -30.00   355.00      -5.81 -999.99   -5.81    0.00000     0.00  LINEAR    2.39722E-01   -23.93    0.00000E+00     0.00
  -25.00   355.00      -7.43 -999.99   -7.43    0.00000     0.00  LINEAR    1.99009E-01   -34.79    0.00000E+00     0.00
  -20.00   355.00      -9.40 -999.99   -9.40    0.00000     0.00  LINEAR    1.58556E-01   -46.09    0.00000E+00     0.00
  -15.00   355.00     -11.93 -999.99  -11.93    0.00000     0.00  LINEAR    1.18461E-01   -57.74    0.00000E+00     0.00
  -10.00   355.00     -15.48 -999.99  -15.48    0.00000     0.00  LINEAR    7.87289E-02   -69.66    0.00000E+00     0.00
   -5.00   355.00     -21.52 -999.99  -21.52    0.00000     0.00  LINEAR    3.92842E-02   -81.76    0.00000E+00     0.00
    0.00   355.00    -999.99 -999.99 -999.99    0.00000     0.00            0.00000E+00     0.00    0.00000E+00     0.00
 -180.00   360.00    -999.99 -999.99 -999.99    0.00000     0.00            4.59127E-12    86.05    0.00000E+00     0.00
 -175.00   360.00     -21.52 -999.99  -21.52    0.00000     0.00  LINEAR    3.92819E-02   -93.95    0.00000E+00     0.00
 -170.00   360.00     -15.48 -999.99  -15.48    0.00000     0.00  LINEAR    7.87228E-02   -93.96    0.00000E+00     0.00
 -165.00   360.00     -11.93 -999.99  -11.93    0.00000     0.00  LINEAR    1.18455E-01   -93.97    0.00000E+00     0.00
 -160.00   360.00      -9.40 -999.99   -9.40    0.00000     0.00  LINEAR    1.58560E-01   -93.98    0.00000E+00     0.00
 -155.00   360.00      -7.43 -999.99   -7.43    0.00000     0.00  LINEAR    1.99042E-01   -94.00    0.00000E+00     0.00
 -150.00   360.00      -5.81 -999.99   -5.81    0.00000     0.00  LINEAR    2.39810E-01   -94.02    0.00000E+00     0.00
 -145.00   360.00      -4.44 -999.99   -4.44    0.00000     0.00  LINEAR    2.80661E-01   -94.05    0.00000E+00     0.00
 -140.00   360.00      -3.27 -999.99   -3.27    0.00000     0.00  LINEAR    3.21269E-01   -94.07    0.00000E+00     0.00
 -135.00   360.00      -2.25 -999.99   -2.25    0.00000     0.00  LINEAR    3.61181E-01   -94.09    0.00000E+00     0.00
 -130.00   360.00      -1.37 -999.99   -1.37    0.00000     0.00  LINEAR    3.99830E-01   -94.11    0.00000E+00     0.00
 -125.00   360.00      -0.60 -999.99   -0.60    0.00000     0.00  LINEAR    4.36543E-01   -94.14    0.00000E+00     0.00
 -120.00   360.00       0.05 -999.99    0.05    0.00000     0.00  LINEAR    4.70574E-01   -94.16    0.00000E+00     0.00
 -115.00   360.00       0.59 -999.99    0.59    0.00000     0.00  LINEAR    5.01138E-01   -94.17    0.00000E+00     0.00
 -110.00   360.00       1.04 -999.99    1.04    0.00000     0.00  LINEAR    5.27454E-01   -94.19    0.00000E+00     0.00
 -105.00   360.00       1.38 -999.99    1.38    0.00000     0.00  LINEAR    5.48794E-01   -94.20    0.00000E+00     0.00
 -100.00   360.00       1.63 -999.99    1.63    0.00000     0.00  LINEAR    5.64529E-01   -94.21    0.00000E+00     0.00
  -95.00   360.00       1.78 -999.99    1.78    0.00000     0.00  LINEAR    5.74174E-01   -94.21    0.00000E+00     0.00
  -90.00   360.00       1.83 -999.99    1.83    0.00000     0.00  LINEAR    5.77424E-01   -94.22    0.00000E+00     0.00
  -85.00   360.00       1.78 -999.99    1.78    0.00000     0.00  LINEAR    5.74174E-01   -94.21    0.00000E+00     0.00
  -80.00   360.00       1.63 -999.99    1.63    0.00000     0.00  LINEAR    5.64529E-01   -94.21    0.00000E+00     0.00
  -75.00   360.00       1.38 -999.99    1.38    0.00000     0.00  LINEAR    5.48794E-01   -94.20    0.00000E+00     0.00
  -70.00   360.00       1.04 -999.99    1.04    0.00000     0.00  LINEAR    5.27454E-01   -94.19    0.00000E+00     0.00
  -65.00   360.00       0.59 -999.99    0.59    0.00000     0.00  LINEAR    5.01138E-01   -94.17    0.00000E+00     0.00
  -60.00   360.00       0.05 -999.99    0.05    0.00000     0.00  LINEAR    4.70574E-01   -94.16    0.00000E+00     0.00
  -55.00   360.00      -0.60 -999.99   -0.60    0.00000     0.00  LINEAR    4.36543E-01   -94.14    0.00000E+00     0.00
  -50.00   360.00      -1.37 -999.99   -1.37    0.00000     0.00  LINEAR    3.99830E-01   -94.11    0.00000E+00     0.00
  -45.00   360.00      -2.25 -999.99   -2.25    0.00000     0.00  LINEAR    3.61181E-01   -94.09    0.00000E+00     0.00
  -40.00   360.00      -3.27 -999.99   -3.27    0.00000     0.00  LINEAR    3.21269E-01   -94.07    0.00000E+00     0.00
  -35.00   360.00      -4.44 -999.99   -4.44    0.00000     0.00  LINEAR    2.80661E-01   -94.05    0.00000E+00     0.00
  -30.00   360.00      -5.81 -999.99   -5.81    0.00000     0.00  LINEAR    2.39810E-01   -94.02    0.00000E+00     0.00
  -25.00   360.00      -7.43 -999.99   -7.43    0.00000     0.00  LINEAR    1.99042E-01   -94.00    0.00000E+00     0.00
  -20.00   360.00      -9.40 -999.99   -9.40    0.00000     0.00  LINEAR    1.58560E-01   -93.98    0.00000E+00     0.00
  -15.00   360.00     -11.93 -999.99  -11.93    0.00000     0.00  LINEAR    1.18455E-01   -93.97    0.00000E+00     0.00
  -10.00   360.00     -15.48 -999.99  -15.48    0.00000     0.00  LINEAR    7.87228E-02   -93.96    0.00000E+00     0.00
   -5.00   360.00     -21.52 -999.99  -21.52    0.00000     0.00  LINEAR    3.92819E-02   -93.95    0.00000E+00     0.00
    0.00   360.00    -999.99 -999.99 -999.99    0.00000     0.00            0.00000E+00     0.00    0.00000E+00     0.00


   AVERAGE POWER GAIN= 5.81734E-01       SOLID ANGLE USED IN AVERAGING=( 4.0000)*PI STERADIANS.








 ***** DATA CARD NO. 26   EN   0    37    73  1003 -1.80000E+02  0.00000E+00  5.00000E+00  5.00000E+00  0.00000E+00  0.00000E+00

 RUN TIME =     0.328
