1



                                 *********************************************

                                    NUMERICAL ELECTROMAGNETICS CODE (NEC-2D)

                                 *********************************************




                                     - - - - COMMENTS - - - -


                                                                                                     
                          forw:-999, 0 ; back: 0, 0                                                  
                                                                                                     




                                 - - - STRUCTURE SPECIFICATION - - -

                                     COORDINATES MUST BE INPUT IN
                                     METERS OR BE SCALED TO METERS
                                     BEFORE STRUCTURE INPUT IS ENDED


  WIRE                                                                               NO. OF    FIRST  LAST     TAG
  NO.        X1         Y1         Z1          X2         Y2         Z2      RADIUS   SEG.     SEG.   SEG.     NO.
     1    0.00000    0.00000   -0.17430     0.00000    0.00000    0.17430    0.00010      9        1     9       1
     2    0.00000    0.34860   -0.17430     0.00000    0.34860    0.17430    0.00010      9       10    18       2
     3    0.00000    0.69719   -0.17430     0.00000    0.69719    0.17430    0.00010      9       19    27       3
     4    0.00000    1.04579   -0.17430     0.00000    1.04579    0.17430    0.00010      9       28    36       4
     5    0.00000    1.39438   -0.17430     0.00000    1.39438    0.17430    0.00010      9       37    45       5
     6    0.00000    1.74298   -0.17430     0.00000    1.74298    0.17430    0.00010      9       46    54       6
     7    0.00000    2.09158   -0.17430     0.00000    2.09158    0.17430    0.00010      9       55    63       7
     8    0.00000    2.44017   -0.17430     0.00000    2.44017    0.17430    0.00010      9       64    72       8
     9    0.00000    2.78877   -0.17430     0.00000    2.78877    0.17430    0.00010      9       73    81       9
    10    0.00000    3.13736   -0.17430     0.00000    3.13736    0.17430    0.00010      9       82    90      10
    11    0.00000    3.48596   -0.17430     0.00000    3.48596    0.17430    0.00010      9       91    99      11
    12    0.00000    3.83455   -0.17430     0.00000    3.83455    0.17430    0.00010      9      100   108      12
    13    0.00000    4.18315   -0.17430     0.00000    4.18315    0.17430    0.00010      9      109   117      13
    14    0.00000    4.53175   -0.17430     0.00000    4.53175    0.17430    0.00010      9      118   126      14
    15    0.00000    4.88034   -0.17430     0.00000    4.88034    0.17430    0.00010      9      127   135      15
    16    0.00000    5.22894   -0.17430     0.00000    5.22894    0.17430    0.00010      9      136   144      16
    17    0.00000    5.57753   -0.17430     0.00000    5.57753    0.17430    0.00010      9      145   153      17
    18    0.00000    5.92613   -0.17430     0.00000    5.92613    0.17430    0.00010      9      154   162      18
    19    0.00000    6.27473   -0.17430     0.00000    6.27473    0.17430    0.00010      9      163   171      19
    20    0.00000    6.62332   -0.17430     0.00000    6.62332    0.17430    0.00010      9      172   180      20

   TOTAL SEGMENTS USED=  180     NO. SEG. IN A SYMMETRIC CELL=  180     SYMMETRY FLAG=  0


         - MULTIPLE WIRE JUNCTIONS -
 JUNCTION    SEGMENTS  (- FOR END 1, + FOR END 2)
  NONE




                                 - - - - SEGMENTATION DATA - - - -

                                        COORDINATES IN METERS

                         I+ AND I- INDICATE THE SEGMENTS BEFORE AND AFTER I


  SEG.   COORDINATES OF SEG. CENTER     SEG.     ORIENTATION ANGLES    WIRE    CONNECTION DATA   TAG
  NO.       X         Y         Z       LENGTH     ALPHA     BETA      RADIUS    I-   I    I+    NO.
     1   0.00000   0.00000  -0.15493   0.03873   90.00000   0.00000   0.00010     0    1    2      1
     2   0.00000   0.00000  -0.11620   0.03873   90.00000   0.00000   0.00010     1    2    3      1
     3   0.00000   0.00000  -0.07747   0.03873   90.00000   0.00000   0.00010     2    3    4      1
     4   0.00000   0.00000  -0.03873   0.03873   90.00000   0.00000   0.00010     3    4    5      1
     5   0.00000   0.00000   0.00000   0.03873   90.00000   0.00000   0.00010     4    5    6      1
     6   0.00000   0.00000   0.03873   0.03873   90.00000   0.00000   0.00010     5    6    7      1
     7   0.00000   0.00000   0.07747   0.03873   90.00000   0.00000   0.00010     6    7    8      1
     8   0.00000   0.00000   0.11620   0.03873   90.00000   0.00000   0.00010     7    8    9      1
     9   0.00000   0.00000   0.15493   0.03873   90.00000   0.00000   0.00010     8    9    0      1
    10   0.00000   0.34860  -0.15493   0.03873   90.00000   0.00000   0.00010     0   10   11      2
    11   0.00000   0.34860  -0.11620   0.03873   90.00000   0.00000   0.00010    10   11   12      2
    12   0.00000   0.34860  -0.07747   0.03873   90.00000   0.00000   0.00010    11   12   13      2
    13   0.00000   0.34860  -0.03873   0.03873   90.00000   0.00000   0.00010    12   13   14      2
    14   0.00000   0.34860   0.00000   0.03873   90.00000   0.00000   0.00010    13   14   15      2
    15   0.00000   0.34860   0.03873   0.03873   90.00000   0.00000   0.00010    14   15   16      2
    16   0.00000   0.34860   0.07747   0.03873   90.00000   0.00000   0.00010    15   16   17      2
    17   0.00000   0.34860   0.11620   0.03873   90.00000   0.00000   0.00010    16   17   18      2
    18   0.00000   0.34860   0.15493   0.03873   90.00000   0.00000   0.00010    17   18    0      2
    19   0.00000   0.69719  -0.15493   0.03873   90.00000   0.00000   0.00010     0   19   20      3
    20   0.00000   0.69719  -0.11620   0.03873   90.00000   0.00000   0.00010    19   20   21      3
    21   0.00000   0.69719  -0.07747   0.03873   90.00000   0.00000   0.00010    20   21   22      3
    22   0.00000   0.69719  -0.03873   0.03873   90.00000   0.00000   0.00010    21   22   23      3
    23   0.00000   0.69719   0.00000   0.03873   90.00000   0.00000   0.00010    22   23   24      3
    24   0.00000   0.69719   0.03873   0.03873   90.00000   0.00000   0.00010    23   24   25      3
    25   0.00000   0.69719   0.07747   0.03873   90.00000   0.00000   0.00010    24   25   26      3
    26   0.00000   0.69719   0.11620   0.03873   90.00000   0.00000   0.00010    25   26   27      3
    27   0.00000   0.69719   0.15493   0.03873   90.00000   0.00000   0.00010    26   27    0      3
    28   0.00000   1.04579  -0.15493   0.03873   90.00000   0.00000   0.00010     0   28   29      4
    29   0.00000   1.04579  -0.11620   0.03873   90.00000   0.00000   0.00010    28   29   30      4
    30   0.00000   1.04579  -0.07747   0.03873   90.00000   0.00000   0.00010    29   30   31      4
    31   0.00000   1.04579  -0.03873   0.03873   90.00000   0.00000   0.00010    30   31   32      4
    32   0.00000   1.04579   0.00000   0.03873   90.00000   0.00000   0.00010    31   32   33      4
    33   0.00000   1.04579   0.03873   0.03873   90.00000   0.00000   0.00010    32   33   34      4
    34   0.00000   1.04579   0.07747   0.03873   90.00000   0.00000   0.00010    33   34   35      4
    35   0.00000   1.04579   0.11620   0.03873   90.00000   0.00000   0.00010    34   35   36      4
    36   0.00000   1.04579   0.15493   0.03873   90.00000   0.00000   0.00010    35   36    0      4
    37   0.00000   1.39438  -0.15493   0.03873   90.00000   0.00000   0.00010     0   37   38      5
    38   0.00000   1.39438  -0.11620   0.03873   90.00000   0.00000   0.00010    37   38   39      5
    39   0.00000   1.39438  -0.07747   0.03873   90.00000   0.00000   0.00010    38   39   40      5
    40   0.00000   1.39438  -0.03873   0.03873   90.00000   0.00000   0.00010    39   40   41      5
    41   0.00000   1.39438   0.00000   0.03873   90.00000   0.00000   0.00010    40   41   42      5
    42   0.00000   1.39438   0.03873   0.03873   90.00000   0.00000   0.00010    41   42   43      5
    43   0.00000   1.39438   0.07747   0.03873   90.00000   0.00000   0.00010    42   43   44      5
    44   0.00000   1.39438   0.11620   0.03873   90.00000   0.00000   0.00010    43   44   45      5
    45   0.00000   1.39438   0.15493   0.03873   90.00000   0.00000   0.00010    44   45    0      5
    46   0.00000   1.74298  -0.15493   0.03873   90.00000   0.00000   0.00010     0   46   47      6
    47   0.00000   1.74298  -0.11620   0.03873   90.00000   0.00000   0.00010    46   47   48      6
    48   0.00000   1.74298  -0.07747   0.03873   90.00000   0.00000   0.00010    47   48   49      6
    49   0.00000   1.74298  -0.03873   0.03873   90.00000   0.00000   0.00010    48   49   50      6
    50   0.00000   1.74298   0.00000   0.03873   90.00000   0.00000   0.00010    49   50   51      6
    51   0.00000   1.74298   0.03873   0.03873   90.00000   0.00000   0.00010    50   51   52      6
    52   0.00000   1.74298   0.07747   0.03873   90.00000   0.00000   0.00010    51   52   53      6
    53   0.00000   1.74298   0.11620   0.03873   90.00000   0.00000   0.00010    52   53   54      6
    54   0.00000   1.74298   0.15493   0.03873   90.00000   0.00000   0.00010    53   54    0      6
    55   0.00000   2.09158  -0.15493   0.03873   90.00000   0.00000   0.00010     0   55   56      7
    56   0.00000   2.09158  -0.11620   0.03873   90.00000   0.00000   0.00010    55   56   57      7
    57   0.00000   2.09158  -0.07747   0.03873   90.00000   0.00000   0.00010    56   57   58      7
    58   0.00000   2.09158  -0.03873   0.03873   90.00000   0.00000   0.00010    57   58   59      7
    59   0.00000   2.09158   0.00000   0.03873   90.00000   0.00000   0.00010    58   59   60      7
    60   0.00000   2.09158   0.03873   0.03873   90.00000   0.00000   0.00010    59   60   61      7
    61   0.00000   2.09158   0.07747   0.03873   90.00000   0.00000   0.00010    60   61   62      7
    62   0.00000   2.09158   0.11620   0.03873   90.00000   0.00000   0.00010    61   62   63      7
    63   0.00000   2.09158   0.15493   0.03873   90.00000   0.00000   0.00010    62   63    0      7
    64   0.00000   2.44017  -0.15493   0.03873   90.00000   0.00000   0.00010     0   64   65      8
    65   0.00000   2.44017  -0.11620   0.03873   90.00000   0.00000   0.00010    64   65   66      8
    66   0.00000   2.44017  -0.07747   0.03873   90.00000   0.00000   0.00010    65   66   67      8
    67   0.00000   2.44017  -0.03873   0.03873   90.00000   0.00000   0.00010    66   67   68      8
    68   0.00000   2.44017   0.00000   0.03873   90.00000   0.00000   0.00010    67   68   69      8
    69   0.00000   2.44017   0.03873   0.03873   90.00000   0.00000   0.00010    68   69   70      8
    70   0.00000   2.44017   0.07747   0.03873   90.00000   0.00000   0.00010    69   70   71      8
    71   0.00000   2.44017   0.11620   0.03873   90.00000   0.00000   0.00010    70   71   72      8
    72   0.00000   2.44017   0.15493   0.03873   90.00000   0.00000   0.00010    71   72    0      8
    73   0.00000   2.78877  -0.15493   0.03873   90.00000   0.00000   0.00010     0   73   74      9
    74   0.00000   2.78877  -0.11620   0.03873   90.00000   0.00000   0.00010    73   74   75      9
    75   0.00000   2.78877  -0.07747   0.03873   90.00000   0.00000   0.00010    74   75   76      9
    76   0.00000   2.78877  -0.03873   0.03873   90.00000   0.00000   0.00010    75   76   77      9
    77   0.00000   2.78877   0.00000   0.03873   90.00000   0.00000   0.00010    76   77   78      9
    78   0.00000   2.78877   0.03873   0.03873   90.00000   0.00000   0.00010    77   78   79      9
    79   0.00000   2.78877   0.07747   0.03873   90.00000   0.00000   0.00010    78   79   80      9
    80   0.00000   2.78877   0.11620   0.03873   90.00000   0.00000   0.00010    79   80   81      9
    81   0.00000   2.78877   0.15493   0.03873   90.00000   0.00000   0.00010    80   81    0      9
    82   0.00000   3.13736  -0.15493   0.03873   90.00000   0.00000   0.00010     0   82   83     10
    83   0.00000   3.13736  -0.11620   0.03873   90.00000   0.00000   0.00010    82   83   84     10
    84   0.00000   3.13736  -0.07747   0.03873   90.00000   0.00000   0.00010    83   84   85     10
    85   0.00000   3.13736  -0.03873   0.03873   90.00000   0.00000   0.00010    84   85   86     10
    86   0.00000   3.13736   0.00000   0.03873   90.00000   0.00000   0.00010    85   86   87     10
    87   0.00000   3.13736   0.03873   0.03873   90.00000   0.00000   0.00010    86   87   88     10
    88   0.00000   3.13736   0.07747   0.03873   90.00000   0.00000   0.00010    87   88   89     10
    89   0.00000   3.13736   0.11620   0.03873   90.00000   0.00000   0.00010    88   89   90     10
    90   0.00000   3.13736   0.15493   0.03873   90.00000   0.00000   0.00010    89   90    0     10
    91   0.00000   3.48596  -0.15493   0.03873   90.00000   0.00000   0.00010     0   91   92     11
    92   0.00000   3.48596  -0.11620   0.03873   90.00000   0.00000   0.00010    91   92   93     11
    93   0.00000   3.48596  -0.07747   0.03873   90.00000   0.00000   0.00010    92   93   94     11
    94   0.00000   3.48596  -0.03873   0.03873   90.00000   0.00000   0.00010    93   94   95     11
    95   0.00000   3.48596   0.00000   0.03873   90.00000   0.00000   0.00010    94   95   96     11
    96   0.00000   3.48596   0.03873   0.03873   90.00000   0.00000   0.00010    95   96   97     11
    97   0.00000   3.48596   0.07747   0.03873   90.00000   0.00000   0.00010    96   97   98     11
    98   0.00000   3.48596   0.11620   0.03873   90.00000   0.00000   0.00010    97   98   99     11
    99   0.00000   3.48596   0.15493   0.03873   90.00000   0.00000   0.00010    98   99    0     11
   100   0.00000   3.83455  -0.15493   0.03873   90.00000   0.00000   0.00010     0  100  101     12
   101   0.00000   3.83455  -0.11620   0.03873   90.00000   0.00000   0.00010   100  101  102     12
   102   0.00000   3.83455  -0.07747   0.03873   90.00000   0.00000   0.00010   101  102  103     12
   103   0.00000   3.83455  -0.03873   0.03873   90.00000   0.00000   0.00010   102  103  104     12
   104   0.00000   3.83455   0.00000   0.03873   90.00000   0.00000   0.00010   103  104  105     12
   105   0.00000   3.83455   0.03873   0.03873   90.00000   0.00000   0.00010   104  105  106     12
   106   0.00000   3.83455   0.07747   0.03873   90.00000   0.00000   0.00010   105  106  107     12
   107   0.00000   3.83455   0.11620   0.03873   90.00000   0.00000   0.00010   106  107  108     12
   108   0.00000   3.83455   0.15493   0.03873   90.00000   0.00000   0.00010   107  108    0     12
   109   0.00000   4.18315  -0.15493   0.03873   90.00000   0.00000   0.00010     0  109  110     13
   110   0.00000   4.18315  -0.11620   0.03873   90.00000   0.00000   0.00010   109  110  111     13
   111   0.00000   4.18315  -0.07747   0.03873   90.00000   0.00000   0.00010   110  111  112     13
   112   0.00000   4.18315  -0.03873   0.03873   90.00000   0.00000   0.00010   111  112  113     13
   113   0.00000   4.18315   0.00000   0.03873   90.00000   0.00000   0.00010   112  113  114     13
   114   0.00000   4.18315   0.03873   0.03873   90.00000   0.00000   0.00010   113  114  115     13
   115   0.00000   4.18315   0.07747   0.03873   90.00000   0.00000   0.00010   114  115  116     13
   116   0.00000   4.18315   0.11620   0.03873   90.00000   0.00000   0.00010   115  116  117     13
   117   0.00000   4.18315   0.15493   0.03873   90.00000   0.00000   0.00010   116  117    0     13
   118   0.00000   4.53175  -0.15493   0.03873   90.00000   0.00000   0.00010     0  118  119     14
   119   0.00000   4.53175  -0.11620   0.03873   90.00000   0.00000   0.00010   118  119  120     14
   120   0.00000   4.53175  -0.07747   0.03873   90.00000   0.00000   0.00010   119  120  121     14
   121   0.00000   4.53175  -0.03873   0.03873   90.00000   0.00000   0.00010   120  121  122     14
   122   0.00000   4.53175   0.00000   0.03873   90.00000   0.00000   0.00010   121  122  123     14
   123   0.00000   4.53175   0.03873   0.03873   90.00000   0.00000   0.00010   122  123  124     14
   124   0.00000   4.53175   0.07747   0.03873   90.00000   0.00000   0.00010   123  124  125     14
   125   0.00000   4.53175   0.11620   0.03873   90.00000   0.00000   0.00010   124  125  126     14
   126   0.00000   4.53175   0.15493   0.03873   90.00000   0.00000   0.00010   125  126    0     14
   127   0.00000   4.88034  -0.15493   0.03873   90.00000   0.00000   0.00010     0  127  128     15
   128   0.00000   4.88034  -0.11620   0.03873   90.00000   0.00000   0.00010   127  128  129     15
   129   0.00000   4.88034  -0.07747   0.03873   90.00000   0.00000   0.00010   128  129  130     15
   130   0.00000   4.88034  -0.03873   0.03873   90.00000   0.00000   0.00010   129  130  131     15
   131   0.00000   4.88034   0.00000   0.03873   90.00000   0.00000   0.00010   130  131  132     15
   132   0.00000   4.88034   0.03873   0.03873   90.00000   0.00000   0.00010   131  132  133     15
   133   0.00000   4.88034   0.07747   0.03873   90.00000   0.00000   0.00010   132  133  134     15
   134   0.00000   4.88034   0.11620   0.03873   90.00000   0.00000   0.00010   133  134  135     15
   135   0.00000   4.88034   0.15493   0.03873   90.00000   0.00000   0.00010   134  135    0     15
   136   0.00000   5.22894  -0.15493   0.03873   90.00000   0.00000   0.00010     0  136  137     16
   137   0.00000   5.22894  -0.11620   0.03873   90.00000   0.00000   0.00010   136  137  138     16
   138   0.00000   5.22894  -0.07747   0.03873   90.00000   0.00000   0.00010   137  138  139     16
   139   0.00000   5.22894  -0.03873   0.03873   90.00000   0.00000   0.00010   138  139  140     16
   140   0.00000   5.22894   0.00000   0.03873   90.00000   0.00000   0.00010   139  140  141     16
   141   0.00000   5.22894   0.03873   0.03873   90.00000   0.00000   0.00010   140  141  142     16
   142   0.00000   5.22894   0.07747   0.03873   90.00000   0.00000   0.00010   141  142  143     16
   143   0.00000   5.22894   0.11620   0.03873   90.00000   0.00000   0.00010   142  143  144     16
   144   0.00000   5.22894   0.15493   0.03873   90.00000   0.00000   0.00010   143  144    0     16
   145   0.00000   5.57753  -0.15493   0.03873   90.00000   0.00000   0.00010     0  145  146     17
   146   0.00000   5.57753  -0.11620   0.03873   90.00000   0.00000   0.00010   145  146  147     17
   147   0.00000   5.57753  -0.07747   0.03873   90.00000   0.00000   0.00010   146  147  148     17
   148   0.00000   5.57753  -0.03873   0.03873   90.00000   0.00000   0.00010   147  148  149     17
   149   0.00000   5.57753   0.00000   0.03873   90.00000   0.00000   0.00010   148  149  150     17
   150   0.00000   5.57753   0.03873   0.03873   90.00000   0.00000   0.00010   149  150  151     17
   151   0.00000   5.57753   0.07747   0.03873   90.00000   0.00000   0.00010   150  151  152     17
   152   0.00000   5.57753   0.11620   0.03873   90.00000   0.00000   0.00010   151  152  153     17
   153   0.00000   5.57753   0.15493   0.03873   90.00000   0.00000   0.00010   152  153    0     17
   154   0.00000   5.92613  -0.15493   0.03873   90.00000   0.00000   0.00010     0  154  155     18
   155   0.00000   5.92613  -0.11620   0.03873   90.00000   0.00000   0.00010   154  155  156     18
   156   0.00000   5.92613  -0.07747   0.03873   90.00000   0.00000   0.00010   155  156  157     18
   157   0.00000   5.92613  -0.03873   0.03873   90.00000   0.00000   0.00010   156  157  158     18
   158   0.00000   5.92613   0.00000   0.03873   90.00000   0.00000   0.00010   157  158  159     18
   159   0.00000   5.92613   0.03873   0.03873   90.00000   0.00000   0.00010   158  159  160     18
   160   0.00000   5.92613   0.07747   0.03873   90.00000   0.00000   0.00010   159  160  161     18
   161   0.00000   5.92613   0.11620   0.03873   90.00000   0.00000   0.00010   160  161  162     18
   162   0.00000   5.92613   0.15493   0.03873   90.00000   0.00000   0.00010   161  162    0     18
   163   0.00000   6.27473  -0.15493   0.03873   90.00000   0.00000   0.00010     0  163  164     19
   164   0.00000   6.27473  -0.11620   0.03873   90.00000   0.00000   0.00010   163  164  165     19
   165   0.00000   6.27473  -0.07747   0.03873   90.00000   0.00000   0.00010   164  165  166     19
   166   0.00000   6.27473  -0.03873   0.03873   90.00000   0.00000   0.00010   165  166  167     19
   167   0.00000   6.27473   0.00000   0.03873   90.00000   0.00000   0.00010   166  167  168     19
   168   0.00000   6.27473   0.03873   0.03873   90.00000   0.00000   0.00010   167  168  169     19
   169   0.00000   6.27473   0.07747   0.03873   90.00000   0.00000   0.00010   168  169  170     19
   170   0.00000   6.27473   0.11620   0.03873   90.00000   0.00000   0.00010   169  170  171     19
   171   0.00000   6.27473   0.15493   0.03873   90.00000   0.00000   0.00010   170  171    0     19
   172   0.00000   6.62332  -0.15493   0.03873   90.00000   0.00000   0.00010     0  172  173     20
   173   0.00000   6.62332  -0.11620   0.03873   90.00000   0.00000   0.00010   172  173  174     20
   174   0.00000   6.62332  -0.07747   0.03873   90.00000   0.00000   0.00010   173  174  175     20
   175   0.00000   6.62332  -0.03873   0.03873   90.00000   0.00000   0.00010   174  175  176     20
   176   0.00000   6.62332   0.00000   0.03873   90.00000   0.00000   0.00010   175  176  177     20
   177   0.00000   6.62332   0.03873   0.03873   90.00000   0.00000   0.00010   176  177  178     20
   178   0.00000   6.62332   0.07747   0.03873   90.00000   0.00000   0.00010   177  178  179     20
   179   0.00000   6.62332   0.11620   0.03873   90.00000   0.00000   0.00010   178  179  180     20
   180   0.00000   6.62332   0.15493   0.03873   90.00000   0.00000   0.00010   179  180    0     20






 ***** DATA CARD NO.  1   LD   4     1     5     5  5.00000E+01  0.00000E+00  0.00000E+00  0.00000E+00  0.00000E+00  0.00000E+00
 ***** DATA CARD NO.  2   LD   4     2     5     5  5.00000E+01  0.00000E+00  0.00000E+00  0.00000E+00  0.00000E+00  0.00000E+00
 ***** DATA CARD NO.  3   LD   4     3     5     5  5.00000E+01  0.00000E+00  0.00000E+00  0.00000E+00  0.00000E+00  0.00000E+00
 ***** DATA CARD NO.  4   LD   4     4     5     5  5.00000E+01  0.00000E+00  0.00000E+00  0.00000E+00  0.00000E+00  0.00000E+00
 ***** DATA CARD NO.  5   LD   4     5     5     5  5.00000E+01  0.00000E+00  0.00000E+00  0.00000E+00  0.00000E+00  0.00000E+00
 ***** DATA CARD NO.  6   LD   4     6     5     5  5.00000E+01  0.00000E+00  0.00000E+00  0.00000E+00  0.00000E+00  0.00000E+00
 ***** DATA CARD NO.  7   LD   4     7     5     5  5.00000E+01  0.00000E+00  0.00000E+00  0.00000E+00  0.00000E+00  0.00000E+00
 ***** DATA CARD NO.  8   LD   4     8     5     5  5.00000E+01  0.00000E+00  0.00000E+00  0.00000E+00  0.00000E+00  0.00000E+00
 ***** DATA CARD NO.  9   LD   4     9     5     5  5.00000E+01  0.00000E+00  0.00000E+00  0.00000E+00  0.00000E+00  0.00000E+00
 ***** DATA CARD NO. 10   LD   4    10     5     5  5.00000E+01  0.00000E+00  0.00000E+00  0.00000E+00  0.00000E+00  0.00000E+00
 ***** DATA CARD NO. 11   LD   4    11     5     5  5.00000E+01  0.00000E+00  0.00000E+00  0.00000E+00  0.00000E+00  0.00000E+00
 ***** DATA CARD NO. 12   LD   4    12     5     5  5.00000E+01  0.00000E+00  0.00000E+00  0.00000E+00  0.00000E+00  0.00000E+00
 ***** DATA CARD NO. 13   LD   4    13     5     5  5.00000E+01  0.00000E+00  0.00000E+00  0.00000E+00  0.00000E+00  0.00000E+00
 ***** DATA CARD NO. 14   LD   4    14     5     5  5.00000E+01  0.00000E+00  0.00000E+00  0.00000E+00  0.00000E+00  0.00000E+00
 ***** DATA CARD NO. 15   LD   4    15     5     5  5.00000E+01  0.00000E+00  0.00000E+00  0.00000E+00  0.00000E+00  0.00000E+00
 ***** DATA CARD NO. 16   LD   4    16     5     5  5.00000E+01  0.00000E+00  0.00000E+00  0.00000E+00  0.00000E+00  0.00000E+00
 ***** DATA CARD NO. 17   LD   4    17     5     5  5.00000E+01  0.00000E+00  0.00000E+00  0.00000E+00  0.00000E+00  0.00000E+00
 ***** DATA CARD NO. 18   LD   4    18     5     5  5.00000E+01  0.00000E+00  0.00000E+00  0.00000E+00  0.00000E+00  0.00000E+00
 ***** DATA CARD NO. 19   LD   4    19     5     5  5.00000E+01  0.00000E+00  0.00000E+00  0.00000E+00  0.00000E+00  0.00000E+00
 ***** DATA CARD NO. 20   LD   4    20     5     5  5.00000E+01  0.00000E+00  0.00000E+00  0.00000E+00  0.00000E+00  0.00000E+00
 ***** DATA CARD NO. 21   GN  -1     0     0     0  0.00000E+00  0.00000E+00  0.00000E+00  0.00000E+00  0.00000E+00  0.00000E+00
 ***** DATA CARD NO. 22   EK   0     0     0     0  0.00000E+00  0.00000E+00  0.00000E+00  0.00000E+00  0.00000E+00  0.00000E+00
 ***** DATA CARD NO. 23   EX   0    14     5     0  1.00000E+00  0.00000E+00  0.00000E+00  0.00000E+00  0.00000E+00  0.00000E+00
 ***** DATA CARD NO. 24   FR   0     0     0     0  4.30000E+02  0.00000E+00  0.00000E+00  0.00000E+00  0.00000E+00  0.00000E+00
 ***** DATA CARD NO. 25   RP   0    37    73  1003 -1.80000E+02  0.00000E+00  5.00000E+00  5.00000E+00  0.00000E+00  0.00000E+00




                                 - - - - - - FREQUENCY - - - - - -

                                    FREQUENCY= 4.3000E+02 MHZ
                                    WAVELENGTH= 6.9721E-01 METERS




                    APPROXIMATE INTEGRATION EMPLOYED FOR SEGMENTS MORE THAN   1.000 WAVELENGTHS APART

                    THE EXTENDED THIN WIRE KERNEL WILL BE USED



                               - - - STRUCTURE IMPEDANCE LOADING - - -


       LOCATION          RESISTANCE   INDUCTANCE  CAPACITANCE       IMPEDANCE (OHMS)     CONDUCTIVITY    TYPE
    ITAG FROM THRU          OHMS        HENRYS       FARADS        REAL      IMAGINARY    MHOS/METER

       1    5    5                                             5.0000E+01                             FIXED IMPEDANCE 

       2    5    5                                             5.0000E+01                             FIXED IMPEDANCE 

       3    5    5                                             5.0000E+01                             FIXED IMPEDANCE 

       4    5    5                                             5.0000E+01                             FIXED IMPEDANCE 

       5    5    5                                             5.0000E+01                             FIXED IMPEDANCE 

       6    5    5                                             5.0000E+01                             FIXED IMPEDANCE 

       7    5    5                                             5.0000E+01                             FIXED IMPEDANCE 

       8    5    5                                             5.0000E+01                             FIXED IMPEDANCE 

       9    5    5                                             5.0000E+01                             FIXED IMPEDANCE 

      10    5    5                                             5.0000E+01                             FIXED IMPEDANCE 

      11    5    5                                             5.0000E+01                             FIXED IMPEDANCE 

      12    5    5                                             5.0000E+01                             FIXED IMPEDANCE 

      13    5    5                                             5.0000E+01                             FIXED IMPEDANCE 

      14    5    5                                             5.0000E+01                             FIXED IMPEDANCE 

      15    5    5                                             5.0000E+01                             FIXED IMPEDANCE 

      16    5    5                                             5.0000E+01                             FIXED IMPEDANCE 

      17    5    5                                             5.0000E+01                             FIXED IMPEDANCE 

      18    5    5                                             5.0000E+01                             FIXED IMPEDANCE 

      19    5    5                                             5.0000E+01                             FIXED IMPEDANCE 

      20    5    5                                             5.0000E+01                             FIXED IMPEDANCE 



                                  - - - ANTENNA ENVIRONMENT - - -

                                            FREE SPACE



                                - - - MATRIX TIMING - - -

                        FILL=    0.031 SEC.,  FACTOR=    0.016 SEC.



                                          - - - ANTENNA INPUT PARAMETERS - - -

   TAG   SEG.    VOLTAGE (VOLTS)         CURRENT (AMPS)         IMPEDANCE (OHMS)        ADMITTANCE (MHOS)      POWER
   NO.   NO.    REAL        IMAG.       REAL        IMAG.       REAL        IMAG.       REAL        IMAG.     (WATTS)
    14   122 1.00000E+00 0.00000E+00 7.30288E-03-1.43876E-03 1.31816E+02 2.59693E+01 7.30288E-03-1.43876E-03 3.65144E-03



                             - - - CURRENTS AND LOCATION - - -

                                 DISTANCES IN WAVELENGTHS


  SEG.  TAG    COORD. OF SEG. CENTER     SEG.            - - - CURRENT (AMPS) - - -
  NO.   NO.     X        Y        Z      LENGTH     REAL        IMAG.       MAG.        PHASE
     1    1   0.0000   0.0000  -0.2222  0.05555   9.5854E-06 -1.0705E-06  9.6450E-06   -6.372
     2    1   0.0000   0.0000  -0.1667  0.05555   2.5817E-05 -3.2368E-06  2.6019E-05   -7.146
     3    1   0.0000   0.0000  -0.1111  0.05555   3.8413E-05 -5.3696E-06  3.8786E-05   -7.958
     4    1   0.0000   0.0000  -0.0556  0.05555   4.6440E-05 -7.2762E-06  4.7007E-05   -8.905
     5    1   0.0000   0.0000   0.0000  0.05555   4.9118E-05 -8.4984E-06  4.9847E-05   -9.816
     6    1   0.0000   0.0000   0.0556  0.05555   4.6440E-05 -7.2762E-06  4.7007E-05   -8.905
     7    1   0.0000   0.0000   0.1111  0.05555   3.8413E-05 -5.3696E-06  3.8786E-05   -7.958
     8    1   0.0000   0.0000   0.1667  0.05555   2.5817E-05 -3.2368E-06  2.6019E-05   -7.146
     9    1   0.0000   0.0000   0.2222  0.05555   9.5854E-06 -1.0705E-06  9.6450E-06   -6.372
    10    2   0.0000   0.5000  -0.2222  0.05555  -8.8700E-06  2.3519E-06  9.1765E-06  165.149
    11    2   0.0000   0.5000  -0.1667  0.05555  -2.3875E-05  6.6679E-06  2.4788E-05  164.396
    12    2   0.0000   0.5000  -0.1111  0.05555  -3.5479E-05  1.0443E-05  3.6984E-05  163.599
    13    2   0.0000   0.5000  -0.0556  0.05555  -4.2808E-05  1.3365E-05  4.4845E-05  162.661
    14    2   0.0000   0.5000   0.0000  0.05555  -4.5172E-05  1.4893E-05  4.7563E-05  161.753
    15    2   0.0000   0.5000   0.0556  0.05555  -4.2808E-05  1.3365E-05  4.4845E-05  162.661
    16    2   0.0000   0.5000   0.1111  0.05555  -3.5479E-05  1.0443E-05  3.6984E-05  163.599
    17    2   0.0000   0.5000   0.1667  0.05555  -2.3875E-05  6.6679E-06  2.4788E-05  164.396
    18    2   0.0000   0.5000   0.2222  0.05555  -8.8700E-06  2.3519E-06  9.1765E-06  165.149
    19    3   0.0000   1.0000  -0.2222  0.05555   9.2398E-06 -2.8256E-06  9.6622E-06  -17.004
    20    3   0.0000   1.0000  -0.1667  0.05555   2.4861E-05 -7.9569E-06  2.6103E-05  -17.747
    21    3   0.0000   1.0000  -0.1111  0.05555   3.6928E-05 -1.2383E-05  3.8949E-05  -18.537
    22    3   0.0000   1.0000  -0.0556  0.05555   4.4529E-05 -1.5743E-05  4.7230E-05  -19.471
    23    3   0.0000   1.0000   0.0000  0.05555   4.6958E-05 -1.7443E-05  5.0093E-05  -20.378
    24    3   0.0000   1.0000   0.0556  0.05555   4.4529E-05 -1.5743E-05  4.7230E-05  -19.471
    25    3   0.0000   1.0000   0.1111  0.05555   3.6928E-05 -1.2383E-05  3.8949E-05  -18.537
    26    3   0.0000   1.0000   0.1667  0.05555   2.4861E-05 -7.9569E-06  2.6103E-05  -17.747
    27    3   0.0000   1.0000   0.2222  0.05555   9.2398E-06 -2.8256E-06  9.6622E-06  -17.004
    28    4   0.0000   1.5000  -0.2222  0.05555  -1.0097E-05  3.1608E-06  1.0580E-05  162.617
    29    4   0.0000   1.5000  -0.1667  0.05555  -2.7163E-05  8.8916E-06  2.8581E-05  161.875
    30    4   0.0000   1.5000  -0.1111  0.05555  -4.0343E-05  1.3824E-05  4.2646E-05  161.086
    31    4   0.0000   1.5000  -0.0556  0.05555  -4.8640E-05  1.7557E-05  5.1712E-05  160.152
    32    4   0.0000   1.5000   0.0000  0.05555  -5.1287E-05  1.9436E-05  5.4847E-05  159.246
    33    4   0.0000   1.5000   0.0556  0.05555  -4.8640E-05  1.7557E-05  5.1712E-05  160.152
    34    4   0.0000   1.5000   0.1111  0.05555  -4.0343E-05  1.3824E-05  4.2646E-05  161.086
    35    4   0.0000   1.5000   0.1667  0.05555  -2.7163E-05  8.8916E-06  2.8581E-05  161.875
    36    4   0.0000   1.5000   0.2222  0.05555  -1.0097E-05  3.1608E-06  1.0580E-05  162.617
    37    5   0.0000   2.0000  -0.2222  0.05555   1.1399E-05 -3.4649E-06  1.1914E-05  -16.907
    38    5   0.0000   2.0000  -0.1667  0.05555   3.0667E-05 -9.7592E-06  3.2183E-05  -17.653
    39    5   0.0000   2.0000  -0.1111  0.05555   4.5550E-05 -1.5191E-05  4.8017E-05  -18.443
    40    5   0.0000   2.0000  -0.0556  0.05555   5.4925E-05 -1.9318E-05  5.8223E-05  -19.378
    41    5   0.0000   2.0000   0.0000  0.05555   5.7922E-05 -2.1409E-05  6.1752E-05  -20.285
    42    5   0.0000   2.0000   0.0556  0.05555   5.4925E-05 -1.9318E-05  5.8223E-05  -19.378
    43    5   0.0000   2.0000   0.1111  0.05555   4.5550E-05 -1.5191E-05  4.8017E-05  -18.443
    44    5   0.0000   2.0000   0.1667  0.05555   3.0667E-05 -9.7592E-06  3.2183E-05  -17.653
    45    5   0.0000   2.0000   0.2222  0.05555   1.1399E-05 -3.4649E-06  1.1914E-05  -16.907
    46    6   0.0000   2.4999  -0.2222  0.05555  -1.3250E-05  3.7600E-06  1.3774E-05  164.158
    47    6   0.0000   2.4999  -0.1667  0.05555  -3.5653E-05  1.0623E-05  3.7202E-05  163.408
    48    6   0.0000   2.4999  -0.1111  0.05555  -5.2964E-05  1.6584E-05  5.5500E-05  162.613
    49    6   0.0000   2.4999  -0.0556  0.05555  -6.3882E-05  2.1156E-05  6.7294E-05  161.677
    50    6   0.0000   2.4999   0.0000  0.05555  -6.7389E-05  2.3508E-05  7.1372E-05  160.769
    51    6   0.0000   2.4999   0.0556  0.05555  -6.3882E-05  2.1156E-05  6.7294E-05  161.677
    52    6   0.0000   2.4999   0.1111  0.05555  -5.2964E-05  1.6584E-05  5.5500E-05  162.613
    53    6   0.0000   2.4999   0.1667  0.05555  -3.5653E-05  1.0623E-05  3.7202E-05  163.408
    54    6   0.0000   2.4999   0.2222  0.05555  -1.3250E-05  3.7600E-06  1.3774E-05  164.158
    55    7   0.0000   2.9999  -0.2222  0.05555   1.5885E-05 -4.0316E-06  1.6389E-05  -14.241
    56    7   0.0000   2.9999  -0.1667  0.05555   4.2749E-05 -1.1453E-05  4.4257E-05  -14.998
    57    7   0.0000   2.9999  -0.1111  0.05555   6.3525E-05 -1.7972E-05  6.6018E-05  -15.797
    58    7   0.0000   2.9999  -0.0556  0.05555   7.6652E-05 -2.3049E-05  8.0042E-05  -16.736
    59    7   0.0000   2.9999   0.0000  0.05555   8.0896E-05 -2.5731E-05  8.4890E-05  -17.645
    60    7   0.0000   2.9999   0.0556  0.05555   7.6652E-05 -2.3049E-05  8.0042E-05  -16.736
    61    7   0.0000   2.9999   0.1111  0.05555   6.3525E-05 -1.7972E-05  6.6018E-05  -15.797
    62    7   0.0000   2.9999   0.1667  0.05555   4.2749E-05 -1.1453E-05  4.4257E-05  -14.998
    63    7   0.0000   2.9999   0.2222  0.05555   1.5885E-05 -4.0316E-06  1.6389E-05  -14.241
    64    8   0.0000   3.4999  -0.2222  0.05555  -1.9748E-05  4.2146E-06  2.0193E-05  167.953
    65    8   0.0000   3.4999  -0.1667  0.05555  -5.3159E-05  1.2090E-05  5.4517E-05  167.187
    66    8   0.0000   3.4999  -0.1111  0.05555  -7.9024E-05  1.9144E-05  8.1310E-05  166.382
    67    8   0.0000   3.4999  -0.0556  0.05555  -9.5408E-05  2.4781E-05  9.8574E-05  165.440
    68    8   0.0000   3.4999   0.0000  0.05555  -1.0075E-04  2.7885E-05  1.0454E-04  164.530
    69    8   0.0000   3.4999   0.0556  0.05555  -9.5408E-05  2.4781E-05  9.8574E-05  165.440
    70    8   0.0000   3.4999   0.1111  0.05555  -7.9024E-05  1.9144E-05  8.1310E-05  166.382
    71    8   0.0000   3.4999   0.1667  0.05555  -5.3159E-05  1.2090E-05  5.4517E-05  167.187
    72    8   0.0000   3.4999   0.2222  0.05555  -1.9748E-05  4.2146E-06  2.0193E-05  167.953
    73    9   0.0000   3.9999  -0.2222  0.05555   2.5719E-05 -4.1162E-06  2.6046E-05   -9.093
    74    9   0.0000   3.9999  -0.1667  0.05555   6.9255E-05 -1.2049E-05  7.0296E-05   -9.869
    75    9   0.0000   3.9999  -0.1111  0.05555   1.0301E-04 -1.9428E-05  1.0482E-04  -10.681
    76    9   0.0000   3.9999  -0.0556  0.05555   1.2445E-04 -2.5611E-05  1.2706E-04  -11.628
    77    9   0.0000   3.9999   0.0000  0.05555   1.3154E-04 -2.9256E-05  1.3475E-04  -12.540
    78    9   0.0000   3.9999   0.0556  0.05555   1.2445E-04 -2.5611E-05  1.2706E-04  -11.628
    79    9   0.0000   3.9999   0.1111  0.05555   1.0301E-04 -1.9428E-05  1.0482E-04  -10.681
    80    9   0.0000   3.9999   0.1667  0.05555   6.9255E-05 -1.2049E-05  7.0296E-05   -9.869
    81    9   0.0000   3.9999   0.2222  0.05555   2.5719E-05 -4.1162E-06  2.6046E-05   -9.093
    82   10   0.0000   4.4999  -0.2222  0.05555  -3.5711E-05  3.1483E-06  3.5850E-05  174.962
    83   10   0.0000   4.4999  -0.1667  0.05555  -9.6206E-05  9.8182E-06  9.6706E-05  174.173
    84   10   0.0000   4.4999  -0.1111  0.05555  -1.4319E-04  1.6689E-05  1.4416E-04  173.352
    85   10   0.0000   4.4999  -0.0556  0.05555  -1.7318E-04  2.3108E-05  1.7471E-04  172.400
    86   10   0.0000   4.4999   0.0000  0.05555  -1.8323E-04  2.7428E-05  1.8527E-04  171.487
    87   10   0.0000   4.4999   0.0556  0.05555  -1.7318E-04  2.3108E-05  1.7471E-04  172.400
    88   10   0.0000   4.4999   0.1111  0.05555  -1.4319E-04  1.6689E-05  1.4416E-04  173.352
    89   10   0.0000   4.4999   0.1667  0.05555  -9.6206E-05  9.8182E-06  9.6706E-05  174.173
    90   10   0.0000   4.4999   0.2222  0.05555  -3.5711E-05  3.1483E-06  3.5850E-05  174.962
    91   11   0.0000   4.9999  -0.2222  0.05555   5.4593E-05  7.7534E-07  5.4599E-05    0.814
    92   11   0.0000   4.9999  -0.1667  0.05555   1.4716E-04  2.9010E-08  1.4716E-04    0.011
    93   11   0.0000   4.9999  -0.1111  0.05555   2.1922E-04 -3.1375E-06  2.1925E-04   -0.820
    94   11   0.0000   4.9999  -0.0556  0.05555   2.6551E-04 -8.2440E-06  2.6564E-04   -1.778
    95   11   0.0000   4.9999   0.0000  0.05555   2.8136E-04 -1.3238E-05  2.8167E-04   -2.694
    96   11   0.0000   4.9999   0.0556  0.05555   2.6551E-04 -8.2440E-06  2.6564E-04   -1.778
    97   11   0.0000   4.9999   0.1111  0.05555   2.1922E-04 -3.1375E-06  2.1925E-04   -0.820
    98   11   0.0000   4.9999   0.1667  0.05555   1.4716E-04  2.9011E-08  1.4716E-04    0.011
    99   11   0.0000   4.9999   0.2222  0.05555   5.4593E-05  7.7534E-07  5.4599E-05    0.814
   100   12   0.0000   5.4999  -0.2222  0.05555  -9.8455E-05 -1.7462E-05  9.9992E-05 -169.943
   101   12   0.0000   5.4999  -0.1667  0.05555  -2.6555E-04 -4.3274E-05  2.6906E-04 -170.745
   102   12   0.0000   5.4999  -0.1111  0.05555  -3.9610E-04 -5.8640E-05  4.0042E-04 -171.579
   103   12   0.0000   5.4999  -0.0556  0.05555  -4.8074E-04 -6.2944E-05  4.8484E-04 -172.541
   104   12   0.0000   5.4999   0.0000  0.05555  -5.1065E-04 -5.8566E-05  5.1400E-04 -173.457
   105   12   0.0000   5.4999   0.0556  0.05555  -4.8074E-04 -6.2944E-05  4.8484E-04 -172.541
   106   12   0.0000   5.4999   0.1111  0.05555  -3.9610E-04 -5.8640E-05  4.0042E-04 -171.579
   107   12   0.0000   5.4999   0.1667  0.05555  -2.6555E-04 -4.3274E-05  2.6906E-04 -170.745
   108   12   0.0000   5.4999   0.2222  0.05555  -9.8455E-05 -1.7462E-05  9.9992E-05 -169.943
   109   13   0.0000   5.9998  -0.2222  0.05555   2.6488E-04  1.2315E-04  2.9211E-04   24.935
   110   13   0.0000   5.9998  -0.1667  0.05555   7.1390E-04  3.2345E-04  7.8375E-04   24.374
   111   13   0.0000   5.9998  -0.1111  0.05555   1.0657E-03  4.6788E-04  1.1639E-03   23.703
   112   13   0.0000   5.9998  -0.0556  0.05555   1.2971E-03  5.4619E-04  1.4074E-03   22.835
   113   13   0.0000   5.9998   0.0000  0.05555   1.3833E-03  5.5743E-04  1.4914E-03   21.948
   114   13   0.0000   5.9998   0.0556  0.05555   1.2971E-03  5.4619E-04  1.4074E-03   22.835
   115   13   0.0000   5.9998   0.1111  0.05555   1.0657E-03  4.6788E-04  1.1639E-03   23.703
   116   13   0.0000   5.9998   0.1667  0.05555   7.1390E-04  3.2345E-04  7.8375E-04   24.374
   117   13   0.0000   5.9998   0.2222  0.05555   2.6488E-04  1.2315E-04  2.9211E-04   24.935
   118   14   0.0000   6.4998  -0.2222  0.05555   1.4333E-03 -4.0798E-04  1.4902E-03  -15.889
   119   14   0.0000   6.4998  -0.1667  0.05555   3.8517E-03 -1.0335E-03  3.9879E-03  -15.020
   120   14   0.0000   6.4998  -0.1111  0.05555   5.7214E-03 -1.4230E-03  5.8957E-03  -13.967
   121   14   0.0000   6.4998  -0.0556  0.05555   6.9091E-03 -1.5422E-03  7.0792E-03  -12.583
   122   14   0.0000   6.4998   0.0000  0.05555   7.3029E-03 -1.4388E-03  7.4433E-03  -11.145
   123   14   0.0000   6.4998   0.0556  0.05555   6.9091E-03 -1.5422E-03  7.0792E-03  -12.583
   124   14   0.0000   6.4998   0.1111  0.05555   5.7214E-03 -1.4230E-03  5.8957E-03  -13.967
   125   14   0.0000   6.4998   0.1667  0.05555   3.8517E-03 -1.0335E-03  3.9879E-03  -15.020
   126   14   0.0000   6.4998   0.2222  0.05555   1.4333E-03 -4.0798E-04  1.4902E-03  -15.889
   127   15   0.0000   6.9998  -0.2222  0.05555   2.6519E-04  1.2323E-04  2.9242E-04   24.923
   128   15   0.0000   6.9998  -0.1667  0.05555   7.1472E-04  3.2363E-04  7.8458E-04   24.361
   129   15   0.0000   6.9998  -0.1111  0.05555   1.0669E-03  4.6814E-04  1.1651E-03   23.691
   130   15   0.0000   6.9998  -0.0556  0.05555   1.2986E-03  5.4648E-04  1.4089E-03   22.822
   131   15   0.0000   6.9998   0.0000  0.05555   1.3849E-03  5.5772E-04  1.4930E-03   21.935
   132   15   0.0000   6.9998   0.0556  0.05555   1.2986E-03  5.4648E-04  1.4089E-03   22.822
   133   15   0.0000   6.9998   0.1111  0.05555   1.0669E-03  4.6814E-04  1.1651E-03   23.691
   134   15   0.0000   6.9998   0.1667  0.05555   7.1472E-04  3.2363E-04  7.8458E-04   24.361
   135   15   0.0000   6.9998   0.2222  0.05555   2.6519E-04  1.2323E-04  2.9242E-04   24.923
   136   16   0.0000   7.4998  -0.2222  0.05555  -9.9099E-05 -1.7632E-05  1.0066E-04 -169.911
   137   16   0.0000   7.4998  -0.1667  0.05555  -2.6730E-04 -4.3709E-05  2.7085E-04 -170.713
   138   16   0.0000   7.4998  -0.1111  0.05555  -3.9871E-04 -5.9252E-05  4.0309E-04 -171.547
   139   16   0.0000   7.4998  -0.0556  0.05555  -4.8391E-04 -6.3633E-05  4.8808E-04 -172.509
   140   16   0.0000   7.4998   0.0000  0.05555  -5.1403E-04 -5.9244E-05  5.1743E-04 -173.425
   141   16   0.0000   7.4998   0.0556  0.05555  -4.8391E-04 -6.3633E-05  4.8808E-04 -172.509
   142   16   0.0000   7.4998   0.1111  0.05555  -3.9871E-04 -5.9252E-05  4.0309E-04 -171.547
   143   16   0.0000   7.4998   0.1667  0.05555  -2.6730E-04 -4.3709E-05  2.7085E-04 -170.713
   144   16   0.0000   7.4998   0.2222  0.05555  -9.9099E-05 -1.7632E-05  1.0066E-04 -169.911
   145   17   0.0000   7.9998  -0.2222  0.05555   5.5673E-05  1.0920E-06  5.5684E-05    1.124
   146   17   0.0000   7.9998  -0.1667  0.05555   1.5008E-04  8.4343E-07  1.5009E-04    0.322
   147   17   0.0000   7.9998  -0.1111  0.05555   2.2360E-04 -1.9857E-06  2.2361E-04   -0.509
   148   17   0.0000   7.9998  -0.0556  0.05555   2.7084E-04 -6.9362E-06  2.7093E-04   -1.467
   149   17   0.0000   7.9998   0.0000  0.05555   2.8703E-04 -1.1941E-05  2.8727E-04   -2.382
   150   17   0.0000   7.9998   0.0556  0.05555   2.7084E-04 -6.9362E-06  2.7093E-04   -1.467
   151   17   0.0000   7.9998   0.1111  0.05555   2.2360E-04 -1.9857E-06  2.2361E-04   -0.509
   152   17   0.0000   7.9998   0.1667  0.05555   1.5008E-04  8.4344E-07  1.5009E-04    0.322
   153   17   0.0000   7.9998   0.2222  0.05555   5.5673E-05  1.0920E-06  5.5684E-05    1.124
   154   18   0.0000   8.4998  -0.2222  0.05555  -3.7433E-05  2.5556E-06  3.7520E-05  176.094
   155   18   0.0000   8.4998  -0.1667  0.05555  -1.0087E-04  8.2842E-06  1.0121E-04  175.305
   156   18   0.0000   8.4998  -0.1111  0.05555  -1.5017E-04  1.4503E-05  1.5087E-04  174.483
   157   18   0.0000   8.4998  -0.0556  0.05555  -1.8168E-04  2.0600E-05  1.8284E-04  173.531
   158   18   0.0000   8.4998   0.0000  0.05555  -1.9229E-04  2.4913E-05  1.9389E-04  172.618
   159   18   0.0000   8.4998   0.0556  0.05555  -1.8168E-04  2.0600E-05  1.8284E-04  173.531
   160   18   0.0000   8.4998   0.1111  0.05555  -1.5017E-04  1.4503E-05  1.5087E-04  174.483
   161   18   0.0000   8.4998   0.1667  0.05555  -1.0087E-04  8.2842E-06  1.0121E-04  175.305
   162   18   0.0000   8.4998   0.2222  0.05555  -3.7433E-05  2.5556E-06  3.7520E-05  176.094
   163   19   0.0000   8.9998  -0.2222  0.05555   2.8582E-05 -2.8438E-06  2.8723E-05   -5.682
   164   19   0.0000   8.9998  -0.1667  0.05555   7.7015E-05 -8.7284E-06  7.7508E-05   -6.466
   165   19   0.0000   8.9998  -0.1111  0.05555   1.1463E-04 -1.4651E-05  1.1556E-04   -7.284
   166   19   0.0000   8.9998  -0.0556  0.05555   1.3863E-04 -2.0060E-05  1.4008E-04   -8.234
   167   19   0.0000   8.9998   0.0000  0.05555   1.4666E-04 -2.3612E-05  1.4855E-04   -9.146
   168   19   0.0000   8.9998   0.0556  0.05555   1.3863E-04 -2.0060E-05  1.4008E-04   -8.234
   169   19   0.0000   8.9998   0.1111  0.05555   1.1463E-04 -1.4651E-05  1.1556E-04   -7.284
   170   19   0.0000   8.9998   0.1667  0.05555   7.7015E-05 -8.7284E-06  7.7508E-05   -6.466
   171   19   0.0000   8.9998   0.2222  0.05555   2.8582E-05 -2.8438E-06  2.8723E-05   -5.682
   172   20   0.0000   9.4998  -0.2222  0.05555  -2.5656E-05  1.8371E-07  2.5657E-05  179.590
   173   20   0.0000   9.4998  -0.1667  0.05555  -6.9158E-05  1.4440E-06  6.9173E-05  178.804
   174   20   0.0000   9.4998  -0.1111  0.05555  -1.0301E-04  3.6262E-06  1.0307E-04  177.984
   175   20   0.0000   9.4998  -0.0556  0.05555  -1.2473E-04  6.4669E-06  1.2489E-04  177.032
   176   20   0.0000   9.4998   0.0000  0.05555  -1.3213E-04  8.9641E-06  1.3243E-04  176.119
   177   20   0.0000   9.4998   0.0556  0.05555  -1.2473E-04  6.4669E-06  1.2489E-04  177.032
   178   20   0.0000   9.4998   0.1111  0.05555  -1.0301E-04  3.6262E-06  1.0307E-04  177.984
   179   20   0.0000   9.4998   0.1667  0.05555  -6.9158E-05  1.4440E-06  6.9173E-05  178.804
   180   20   0.0000   9.4998   0.2222  0.05555  -2.5656E-05  1.8371E-07  2.5657E-05  179.590



                                        - - - POWER BUDGET - - -

                                           INPUT POWER   = 3.6514E-03 WATTS
                                           RADIATED POWER= 2.1335E-03 WATTS
                                           STRUCTURE LOSS= 1.5179E-03 WATTS
                                           NETWORK LOSS  = 0.0000E+00 WATTS
                                           EFFICIENCY    =  58.43 PERCENT



                                                - - - RADIATION PATTERNS - - -

  - - ANGLES - -           - POWER GAINS -       - - - POLARIZATION - - -    - - - E(THETA) - - -    - - - E(PHI) - - -
  THETA     PHI        VERT.   HOR.    TOTAL      AXIAL     TILT   SENSE     MAGNITUDE    PHASE      MAGNITUDE    PHASE 
 DEGREES  DEGREES       DB      DB      DB        RATIO     DEG.              VOLTS/M    DEGREES      VOLTS/M    DEGREES
 -180.00     0.00    -999.99 -999.99 -999.99    0.00000     0.00            4.56991E-12    86.00    0.00000E+00     0.00
 -175.00     0.00     -21.56 -999.99  -21.56    0.00000     0.00  LINEAR    3.90991E-02   -94.00    0.00000E+00     0.00
 -170.00     0.00     -15.52 -999.99  -15.52    0.00000     0.00  LINEAR    7.83565E-02   -94.01    0.00000E+00     0.00
 -165.00     0.00     -11.97 -999.99  -11.97    0.00000     0.00  LINEAR    1.17904E-01   -94.02    0.00000E+00     0.00
 -160.00     0.00      -9.44 -999.99   -9.44    0.00000     0.00  LINEAR    1.57822E-01   -94.03    0.00000E+00     0.00
 -155.00     0.00      -7.46 -999.99   -7.46    0.00000     0.00  LINEAR    1.98116E-01   -94.05    0.00000E+00     0.00
 -150.00     0.00      -5.85 -999.99   -5.85    0.00000     0.00  LINEAR    2.38695E-01   -94.07    0.00000E+00     0.00
 -145.00     0.00      -4.48 -999.99   -4.48    0.00000     0.00  LINEAR    2.79356E-01   -94.09    0.00000E+00     0.00
 -140.00     0.00      -3.31 -999.99   -3.31    0.00000     0.00  LINEAR    3.19775E-01   -94.12    0.00000E+00     0.00
 -135.00     0.00      -2.29 -999.99   -2.29    0.00000     0.00  LINEAR    3.59503E-01   -94.14    0.00000E+00     0.00
 -130.00     0.00      -1.41 -999.99   -1.41    0.00000     0.00  LINEAR    3.97972E-01   -94.16    0.00000E+00     0.00
 -125.00     0.00      -0.64 -999.99   -0.64    0.00000     0.00  LINEAR    4.34515E-01   -94.18    0.00000E+00     0.00
 -120.00     0.00       0.01 -999.99    0.01    0.00000     0.00  LINEAR    4.68388E-01   -94.20    0.00000E+00     0.00
 -115.00     0.00       0.56 -999.99    0.56    0.00000     0.00  LINEAR    4.98811E-01   -94.22    0.00000E+00     0.00
 -110.00     0.00       1.00 -999.99    1.00    0.00000     0.00  LINEAR    5.25005E-01   -94.24    0.00000E+00     0.00
 -105.00     0.00       1.34 -999.99    1.34    0.00000     0.00  LINEAR    5.46246E-01   -94.25    0.00000E+00     0.00
 -100.00     0.00       1.59 -999.99    1.59    0.00000     0.00  LINEAR    5.61908E-01   -94.26    0.00000E+00     0.00
  -95.00     0.00       1.74 -999.99    1.74    0.00000     0.00  LINEAR    5.71509E-01   -94.26    0.00000E+00     0.00
  -90.00     0.00       1.79 -999.99    1.79    0.00000     0.00  LINEAR    5.74744E-01   -94.27    0.00000E+00     0.00
  -85.00     0.00       1.74 -999.99    1.74    0.00000     0.00  LINEAR    5.71509E-01   -94.26    0.00000E+00     0.00
  -80.00     0.00       1.59 -999.99    1.59    0.00000     0.00  LINEAR    5.61908E-01   -94.26    0.00000E+00     0.00
  -75.00     0.00       1.34 -999.99    1.34    0.00000     0.00  LINEAR    5.46246E-01   -94.25    0.00000E+00     0.00
  -70.00     0.00       1.00 -999.99    1.00    0.00000     0.00  LINEAR    5.25005E-01   -94.24    0.00000E+00     0.00
  -65.00     0.00       0.56 -999.99    0.56    0.00000     0.00  LINEAR    4.98811E-01   -94.22    0.00000E+00     0.00
  -60.00     0.00       0.01 -999.99    0.01    0.00000     0.00  LINEAR    4.68388E-01   -94.20    0.00000E+00     0.00
  -55.00     0.00      -0.64 -999.99   -0.64    0.00000     0.00  LINEAR    4.34515E-01   -94.18    0.00000E+00     0.00
  -50.00     0.00      -1.41 -999.99   -1.41    0.00000     0.00  LINEAR    3.97972E-01   -94.16    0.00000E+00     0.00
  -45.00     0.00      -2.29 -999.99   -2.29    0.00000     0.00  LINEAR    3.59503E-01   -94.14    0.00000E+00     0.00
  -40.00     0.00      -3.31 -999.99   -3.31    0.00000     0.00  LINEAR    3.19775E-01   -94.12    0.00000E+00     0.00
  -35.00     0.00      -4.48 -999.99   -4.48    0.00000     0.00  LINEAR    2.79356E-01   -94.09    0.00000E+00     0.00
  -30.00     0.00      -5.85 -999.99   -5.85    0.00000     0.00  LINEAR    2.38695E-01   -94.07    0.00000E+00     0.00
  -25.00     0.00      -7.46 -999.99   -7.46    0.00000     0.00  LINEAR    1.98116E-01   -94.05    0.00000E+00     0.00
  -20.00     0.00      -9.44 -999.99   -9.44    0.00000     0.00  LINEAR    1.57822E-01   -94.03    0.00000E+00     0.00
  -15.00     0.00     -11.97 -999.99  -11.97    0.00000     0.00  LINEAR    1.17904E-01   -94.02    0.00000E+00     0.00
  -10.00     0.00     -15.52 -999.99  -15.52    0.00000     0.00  LINEAR    7.83565E-02   -94.01    0.00000E+00     0.00
   -5.00     0.00     -21.56 -999.99  -21.56    0.00000     0.00  LINEAR    3.90991E-02   -94.00    0.00000E+00     0.00
    0.00     0.00    -999.99 -999.99 -999.99    0.00000     0.00            0.00000E+00     0.00    0.00000E+00     0.00
 -180.00     5.00    -999.99 -999.99 -999.99    0.00000     0.00            4.56991E-12    86.00    0.00000E+00     0.00
 -175.00     5.00     -21.56 -999.99  -21.56    0.00000     0.00  LINEAR    3.90907E-02  -111.66    0.00000E+00     0.00
 -170.00     5.00     -15.53 -999.99  -15.53    0.00000     0.00  LINEAR    7.83105E-02  -129.20    0.00000E+00     0.00
 -165.00     5.00     -11.98 -999.99  -11.98    0.00000     0.00  LINEAR    1.17777E-01  -146.50    0.00000E+00     0.00
 -160.00     5.00      -9.45 -999.99   -9.45    0.00000     0.00  LINEAR    1.57567E-01  -163.41    0.00000E+00     0.00
 -155.00     5.00      -7.48 -999.99   -7.48    0.00000     0.00  LINEAR    1.97691E-01  -179.82    0.00000E+00     0.00
 -150.00     5.00      -5.87 -999.99   -5.87    0.00000     0.00  LINEAR    2.38075E-01   164.40    0.00000E+00     0.00
 -145.00     5.00      -4.51 -999.99   -4.51    0.00000     0.00  LINEAR    2.78539E-01   149.37    0.00000E+00     0.00
 -140.00     5.00      -3.33 -999.99   -3.33    0.00000     0.00  LINEAR    3.18780E-01   135.22    0.00000E+00     0.00
 -135.00     5.00      -2.32 -999.99   -2.32    0.00000     0.00  LINEAR    3.58370E-01   122.05    0.00000E+00     0.00
 -130.00     5.00      -1.43 -999.99   -1.43    0.00000     0.00  LINEAR    3.96754E-01   109.98    0.00000E+00     0.00
 -125.00     5.00      -0.67 -999.99   -0.67    0.00000     0.00  LINEAR    4.33268E-01    99.09    0.00000E+00     0.00
 -120.00     5.00      -0.01 -999.99   -0.01    0.00000     0.00  LINEAR    4.67163E-01    89.47    0.00000E+00     0.00
 -115.00     5.00       0.54 -999.99    0.54    0.00000     0.00  LINEAR    4.97646E-01    81.20    0.00000E+00     0.00
 -110.00     5.00       0.98 -999.99    0.98    0.00000     0.00  LINEAR    5.23923E-01    74.35    0.00000E+00     0.00
 -105.00     5.00       1.33 -999.99    1.33    0.00000     0.00  LINEAR    5.45250E-01    68.96    0.00000E+00     0.00
 -100.00     5.00       1.58 -999.99    1.58    0.00000     0.00  LINEAR    5.60987E-01    65.09    0.00000E+00     0.00
  -95.00     5.00       1.72 -999.99    1.72    0.00000     0.00  LINEAR    5.70639E-01    62.75    0.00000E+00     0.00
  -90.00     5.00       1.77 -999.99    1.77    0.00000     0.00  LINEAR    5.73891E-01    61.97    0.00000E+00     0.00
  -85.00     5.00       1.72 -999.99    1.72    0.00000     0.00  LINEAR    5.70639E-01    62.75    0.00000E+00     0.00
  -80.00     5.00       1.58 -999.99    1.58    0.00000     0.00  LINEAR    5.60987E-01    65.09    0.00000E+00     0.00
  -75.00     5.00       1.33 -999.99    1.33    0.00000     0.00  LINEAR    5.45250E-01    68.96    0.00000E+00     0.00
  -70.00     5.00       0.98 -999.99    0.98    0.00000     0.00  LINEAR    5.23923E-01    74.35    0.00000E+00     0.00
  -65.00     5.00       0.54 -999.99    0.54    0.00000     0.00  LINEAR    4.97646E-01    81.20    0.00000E+00     0.00
  -60.00     5.00      -0.01 -999.99   -0.01    0.00000     0.00  LINEAR    4.67163E-01    89.47    0.00000E+00     0.00
  -55.00     5.00      -0.67 -999.99   -0.67    0.00000     0.00  LINEAR    4.33268E-01    99.09    0.00000E+00     0.00
  -50.00     5.00      -1.43 -999.99   -1.43    0.00000     0.00  LINEAR    3.96754E-01   109.98    0.00000E+00     0.00
  -45.00     5.00      -2.32 -999.99   -2.32    0.00000     0.00  LINEAR    3.58370E-01   122.05    0.00000E+00     0.00
  -40.00     5.00      -3.33 -999.99   -3.33    0.00000     0.00  LINEAR    3.18780E-01   135.22    0.00000E+00     0.00
  -35.00     5.00      -4.51 -999.99   -4.51    0.00000     0.00  LINEAR    2.78539E-01   149.37    0.00000E+00     0.00
  -30.00     5.00      -5.87 -999.99   -5.87    0.00000     0.00  LINEAR    2.38075E-01   164.40    0.00000E+00     0.00
  -25.00     5.00      -7.48 -999.99   -7.48    0.00000     0.00  LINEAR    1.97691E-01  -179.82    0.00000E+00     0.00
  -20.00     5.00      -9.45 -999.99   -9.45    0.00000     0.00  LINEAR    1.57567E-01  -163.41    0.00000E+00     0.00
  -15.00     5.00     -11.98 -999.99  -11.98    0.00000     0.00  LINEAR    1.17777E-01  -146.50    0.00000E+00     0.00
  -10.00     5.00     -15.53 -999.99  -15.53    0.00000     0.00  LINEAR    7.83105E-02  -129.20    0.00000E+00     0.00
   -5.00     5.00     -21.56 -999.99  -21.56    0.00000     0.00  LINEAR    3.90907E-02  -111.66    0.00000E+00     0.00
    0.00     5.00    -999.99 -999.99 -999.99    0.00000     0.00            0.00000E+00     0.00    0.00000E+00     0.00
 -180.00    10.00    -999.99 -999.99 -999.99    0.00000     0.00            4.56991E-12    86.00    0.00000E+00     0.00
 -175.00    10.00     -21.56 -999.99  -21.56    0.00000     0.00  LINEAR    3.90762E-02  -129.20    0.00000E+00     0.00
 -170.00    10.00     -15.54 -999.99  -15.54    0.00000     0.00  LINEAR    7.82282E-02  -164.19    0.00000E+00     0.00
 -165.00    10.00     -12.00 -999.99  -12.00    0.00000     0.00  LINEAR    1.17590E-01   161.26    0.00000E+00     0.00
 -160.00    10.00      -9.47 -999.99   -9.47    0.00000     0.00  LINEAR    1.57329E-01   127.41    0.00000E+00     0.00
 -155.00    10.00      -7.49 -999.99   -7.49    0.00000     0.00  LINEAR    1.97576E-01    94.54    0.00000E+00     0.00
 -150.00    10.00      -5.86 -999.99   -5.86    0.00000     0.00  LINEAR    2.38338E-01    62.94    0.00000E+00     0.00
 -145.00    10.00      -4.48 -999.99   -4.48    0.00000     0.00  LINEAR    2.79416E-01    32.88    0.00000E+00     0.00
 -140.00    10.00      -3.29 -999.99   -3.29    0.00000     0.00  LINEAR    3.20388E-01     4.62    0.00000E+00     0.00
 -135.00    10.00      -2.26 -999.99   -2.26    0.00000     0.00  LINEAR    3.60647E-01   -21.64    0.00000E+00     0.00
 -130.00    10.00      -1.37 -999.99   -1.37    0.00000     0.00  LINEAR    3.99469E-01   -45.69    0.00000E+00     0.00
 -125.00    10.00      -0.61 -999.99   -0.61    0.00000     0.00  LINEAR    4.36085E-01   -67.36    0.00000E+00     0.00
 -120.00    10.00       0.03 -999.99    0.03    0.00000     0.00  LINEAR    4.69734E-01   -86.49    0.00000E+00     0.00
 -115.00    10.00       0.57 -999.99    0.57    0.00000     0.00  LINEAR    4.99687E-01  -102.93    0.00000E+00     0.00
 -110.00    10.00       1.00 -999.99    1.00    0.00000     0.00  LINEAR    5.25269E-01  -116.57    0.00000E+00     0.00
 -105.00    10.00       1.34 -999.99    1.34    0.00000     0.00  LINEAR    5.45877E-01  -127.29    0.00000E+00     0.00
 -100.00    10.00       1.58 -999.99    1.58    0.00000     0.00  LINEAR    5.60996E-01  -135.00    0.00000E+00     0.00
  -95.00    10.00       1.72 -999.99    1.72    0.00000     0.00  LINEAR    5.70235E-01  -139.66    0.00000E+00     0.00
  -90.00    10.00       1.77 -999.99    1.77    0.00000     0.00  LINEAR    5.73343E-01  -141.22    0.00000E+00     0.00
  -85.00    10.00       1.72 -999.99    1.72    0.00000     0.00  LINEAR    5.70235E-01  -139.66    0.00000E+00     0.00
  -80.00    10.00       1.58 -999.99    1.58    0.00000     0.00  LINEAR    5.60996E-01  -135.00    0.00000E+00     0.00
  -75.00    10.00       1.34 -999.99    1.34    0.00000     0.00  LINEAR    5.45877E-01  -127.29    0.00000E+00     0.00
  -70.00    10.00       1.00 -999.99    1.00    0.00000     0.00  LINEAR    5.25269E-01  -116.57    0.00000E+00     0.00
  -65.00    10.00       0.57 -999.99    0.57    0.00000     0.00  LINEAR    4.99687E-01  -102.93    0.00000E+00     0.00
  -60.00    10.00       0.03 -999.99    0.03    0.00000     0.00  LINEAR    4.69734E-01   -86.49    0.00000E+00     0.00
  -55.00    10.00      -0.61 -999.99   -0.61    0.00000     0.00  LINEAR    4.36085E-01   -67.36    0.00000E+00     0.00
  -50.00    10.00      -1.37 -999.99   -1.37    0.00000     0.00  LINEAR    3.99469E-01   -45.69    0.00000E+00     0.00
  -45.00    10.00      -2.26 -999.99   -2.26    0.00000     0.00  LINEAR    3.60647E-01   -21.64    0.00000E+00     0.00
  -40.00    10.00      -3.29 -999.99   -3.29    0.00000     0.00  LINEAR    3.20388E-01     4.62    0.00000E+00     0.00
  -35.00    10.00      -4.48 -999.99   -4.48    0.00000     0.00  LINEAR    2.79416E-01    32.88    0.00000E+00     0.00
  -30.00    10.00      -5.86 -999.99   -5.86    0.00000     0.00  LINEAR    2.38338E-01    62.94    0.00000E+00     0.00
  -25.00    10.00      -7.49 -999.99   -7.49    0.00000     0.00  LINEAR    1.97576E-01    94.54    0.00000E+00     0.00
  -20.00    10.00      -9.47 -999.99   -9.47    0.00000     0.00  LINEAR    1.57329E-01   127.41    0.00000E+00     0.00
  -15.00    10.00     -12.00 -999.99  -12.00    0.00000     0.00  LINEAR    1.17590E-01   161.26    0.00000E+00     0.00
  -10.00    10.00     -15.54 -999.99  -15.54    0.00000     0.00  LINEAR    7.82282E-02  -164.19    0.00000E+00     0.00
   -5.00    10.00     -21.56 -999.99  -21.56    0.00000     0.00  LINEAR    3.90762E-02  -129.20    0.00000E+00     0.00
    0.00    10.00    -999.99 -999.99 -999.99    0.00000     0.00            0.00000E+00     0.00    0.00000E+00     0.00
 -180.00    15.00    -999.99 -999.99 -999.99    0.00000     0.00            4.56991E-12    86.00    0.00000E+00     0.00
 -175.00    15.00     -21.57 -999.99  -21.57    0.00000     0.00  LINEAR    3.90572E-02  -146.48    0.00000E+00     0.00
 -170.00    15.00     -15.54 -999.99  -15.54    0.00000     0.00  LINEAR    7.81482E-02   161.27    0.00000E+00     0.00
 -165.00    15.00     -12.00 -999.99  -12.00    0.00000     0.00  LINEAR    1.17548E-01   109.60    0.00000E+00     0.00
 -160.00    15.00      -9.45 -999.99   -9.45    0.00000     0.00  LINEAR    1.57619E-01    58.99    0.00000E+00     0.00
 -155.00    15.00      -7.45 -999.99   -7.45    0.00000     0.00  LINEAR    1.98436E-01     9.94    0.00000E+00     0.00
 -150.00    15.00      -5.81 -999.99   -5.81    0.00000     0.00  LINEAR    2.39562E-01   -37.12    0.00000E+00     0.00
 -145.00    15.00      -4.45 -999.99   -4.45    0.00000     0.00  LINEAR    2.80219E-01   -81.84    0.00000E+00     0.00
 -140.00    15.00      -3.31 -999.99   -3.31    0.00000     0.00  LINEAR    3.19668E-01  -123.94    0.00000E+00     0.00
 -135.00    15.00      -2.34 -999.99   -2.34    0.00000     0.00  LINEAR    3.57447E-01  -163.14    0.00000E+00     0.00
 -130.00    15.00      -1.51 -999.99   -1.51    0.00000     0.00  LINEAR    3.93320E-01   160.88    0.00000E+00     0.00
 -125.00    15.00      -0.79 -999.99   -0.79    0.00000     0.00  LINEAR    4.27058E-01   128.40    0.00000E+00     0.00
 -120.00    15.00      -0.18 -999.99   -0.18    0.00000     0.00  LINEAR    4.58261E-01    99.73    0.00000E+00     0.00
 -115.00    15.00       0.34 -999.99    0.34    0.00000     0.00  LINEAR    4.86330E-01    75.10    0.00000E+00     0.00
 -110.00    15.00       0.76 -999.99    0.76    0.00000     0.00  LINEAR    5.10550E-01    54.71    0.00000E+00     0.00
 -105.00    15.00       1.09 -999.99    1.09    0.00000     0.00  LINEAR    5.30214E-01    38.70    0.00000E+00     0.00
 -100.00    15.00       1.32 -999.99    1.32    0.00000     0.00  LINEAR    5.44714E-01    27.19    0.00000E+00     0.00
  -95.00    15.00       1.46 -999.99    1.46    0.00000     0.00  LINEAR    5.53598E-01    20.26    0.00000E+00     0.00
  -90.00    15.00       1.51 -999.99    1.51    0.00000     0.00  LINEAR    5.56590E-01    17.94    0.00000E+00     0.00
  -85.00    15.00       1.46 -999.99    1.46    0.00000     0.00  LINEAR    5.53598E-01    20.26    0.00000E+00     0.00
  -80.00    15.00       1.32 -999.99    1.32    0.00000     0.00  LINEAR    5.44714E-01    27.19    0.00000E+00     0.00
  -75.00    15.00       1.09 -999.99    1.09    0.00000     0.00  LINEAR    5.30214E-01    38.70    0.00000E+00     0.00
  -70.00    15.00       0.76 -999.99    0.76    0.00000     0.00  LINEAR    5.10550E-01    54.71    0.00000E+00     0.00
  -65.00    15.00       0.34 -999.99    0.34    0.00000     0.00  LINEAR    4.86330E-01    75.10    0.00000E+00     0.00
  -60.00    15.00      -0.18 -999.99   -0.18    0.00000     0.00  LINEAR    4.58261E-01    99.73    0.00000E+00     0.00
  -55.00    15.00      -0.79 -999.99   -0.79    0.00000     0.00  LINEAR    4.27058E-01   128.40    0.00000E+00     0.00
  -50.00    15.00      -1.51 -999.99   -1.51    0.00000     0.00  LINEAR    3.93320E-01   160.88    0.00000E+00     0.00
  -45.00    15.00      -2.34 -999.99   -2.34    0.00000     0.00  LINEAR    3.57447E-01  -163.14    0.00000E+00     0.00
  -40.00    15.00      -3.31 -999.99   -3.31    0.00000     0.00  LINEAR    3.19668E-01  -123.94    0.00000E+00     0.00
  -35.00    15.00      -4.45 -999.99   -4.45    0.00000     0.00  LINEAR    2.80219E-01   -81.84    0.00000E+00     0.00
  -30.00    15.00      -5.81 -999.99   -5.81    0.00000     0.00  LINEAR    2.39562E-01   -37.12    0.00000E+00     0.00
  -25.00    15.00      -7.45 -999.99   -7.45    0.00000     0.00  LINEAR    1.98436E-01     9.94    0.00000E+00     0.00
  -20.00    15.00      -9.45 -999.99   -9.45    0.00000     0.00  LINEAR    1.57619E-01    58.99    0.00000E+00     0.00
  -15.00    15.00     -12.00 -999.99  -12.00    0.00000     0.00  LINEAR    1.17548E-01   109.60    0.00000E+00     0.00
  -10.00    15.00     -15.54 -999.99  -15.54    0.00000     0.00  LINEAR    7.81482E-02   161.27    0.00000E+00     0.00
   -5.00    15.00     -21.57 -999.99  -21.57    0.00000     0.00  LINEAR    3.90572E-02  -146.48    0.00000E+00     0.00
    0.00    15.00    -999.99 -999.99 -999.99    0.00000     0.00            0.00000E+00     0.00    0.00000E+00     0.00
 -180.00    20.00    -999.99 -999.99 -999.99    0.00000     0.00            4.56991E-12    86.00    0.00000E+00     0.00
 -175.00    20.00     -21.57 -999.99  -21.57    0.00000     0.00  LINEAR    3.90362E-02  -163.38    0.00000E+00     0.00
 -170.00    20.00     -15.55 -999.99  -15.55    0.00000     0.00  LINEAR    7.81120E-02   127.43    0.00000E+00     0.00
 -165.00    20.00     -11.98 -999.99  -11.98    0.00000     0.00  LINEAR    1.17753E-01    59.01    0.00000E+00     0.00
 -160.00    20.00      -9.42 -999.99   -9.42    0.00000     0.00  LINEAR    1.58230E-01    -7.89    0.00000E+00     0.00
 -155.00    20.00      -7.43 -999.99   -7.43    0.00000     0.00  LINEAR    1.98799E-01   -72.63    0.00000E+00     0.00
 -150.00    20.00      -5.86 -999.99   -5.86    0.00000     0.00  LINEAR    2.38297E-01  -134.82    0.00000E+00     0.00
 -145.00    20.00      -4.57 -999.99   -4.57    0.00000     0.00  LINEAR    2.76317E-01   165.89    0.00000E+00     0.00
 -140.00    20.00      -3.48 -999.99   -3.48    0.00000     0.00  LINEAR    3.13328E-01   109.97    0.00000E+00     0.00
 -135.00    20.00      -2.53 -999.99   -2.53    0.00000     0.00  LINEAR    3.49706E-01    58.03    0.00000E+00     0.00
 -130.00    20.00      -1.69 -999.99   -1.69    0.00000     0.00  LINEAR    3.85036E-01    10.57    0.00000E+00     0.00
 -125.00    20.00      -0.97 -999.99   -0.97    0.00000     0.00  LINEAR    4.18318E-01   -32.05    0.00000E+00     0.00
 -120.00    20.00      -0.37 -999.99   -0.37    0.00000     0.00  LINEAR    4.48566E-01   -69.59    0.00000E+00     0.00
 -115.00    20.00       0.13 -999.99    0.13    0.00000     0.00  LINEAR    4.75118E-01  -101.83    0.00000E+00     0.00
 -110.00    20.00       0.53 -999.99    0.53    0.00000     0.00  LINEAR    4.97567E-01  -128.59    0.00000E+00     0.00
 -105.00    20.00       0.84 -999.99    0.84    0.00000     0.00  LINEAR    5.15581E-01  -149.64    0.00000E+00     0.00
 -100.00    20.00       1.06 -999.99    1.06    0.00000     0.00  LINEAR    5.28813E-01  -164.82    0.00000E+00     0.00
  -95.00    20.00       1.20 -999.99    1.20    0.00000     0.00  LINEAR    5.36920E-01  -173.99    0.00000E+00     0.00
  -90.00    20.00       1.24 -999.99    1.24    0.00000     0.00  LINEAR    5.39654E-01  -177.05    0.00000E+00     0.00
  -85.00    20.00       1.20 -999.99    1.20    0.00000     0.00  LINEAR    5.36920E-01  -173.99    0.00000E+00     0.00
  -80.00    20.00       1.06 -999.99    1.06    0.00000     0.00  LINEAR    5.28813E-01  -164.82    0.00000E+00     0.00
  -75.00    20.00       0.84 -999.99    0.84    0.00000     0.00  LINEAR    5.15581E-01  -149.64    0.00000E+00     0.00
  -70.00    20.00       0.53 -999.99    0.53    0.00000     0.00  LINEAR    4.97567E-01  -128.59    0.00000E+00     0.00
  -65.00    20.00       0.13 -999.99    0.13    0.00000     0.00  LINEAR    4.75118E-01  -101.83    0.00000E+00     0.00
  -60.00    20.00      -0.37 -999.99   -0.37    0.00000     0.00  LINEAR    4.48566E-01   -69.59    0.00000E+00     0.00
  -55.00    20.00      -0.97 -999.99   -0.97    0.00000     0.00  LINEAR    4.18318E-01   -32.05    0.00000E+00     0.00
  -50.00    20.00      -1.69 -999.99   -1.69    0.00000     0.00  LINEAR    3.85036E-01    10.57    0.00000E+00     0.00
  -45.00    20.00      -2.53 -999.99   -2.53    0.00000     0.00  LINEAR    3.49706E-01    58.03    0.00000E+00     0.00
  -40.00    20.00      -3.48 -999.99   -3.48    0.00000     0.00  LINEAR    3.13328E-01   109.97    0.00000E+00     0.00
  -35.00    20.00      -4.57 -999.99   -4.57    0.00000     0.00  LINEAR    2.76317E-01   165.89    0.00000E+00     0.00
  -30.00    20.00      -5.86 -999.99   -5.86    0.00000     0.00  LINEAR    2.38297E-01  -134.82    0.00000E+00     0.00
  -25.00    20.00      -7.43 -999.99   -7.43    0.00000     0.00  LINEAR    1.98799E-01   -72.63    0.00000E+00     0.00
  -20.00    20.00      -9.42 -999.99   -9.42    0.00000     0.00  LINEAR    1.58230E-01    -7.89    0.00000E+00     0.00
  -15.00    20.00     -11.98 -999.99  -11.98    0.00000     0.00  LINEAR    1.17753E-01    59.01    0.00000E+00     0.00
  -10.00    20.00     -15.55 -999.99  -15.55    0.00000     0.00  LINEAR    7.81120E-02   127.43    0.00000E+00     0.00
   -5.00    20.00     -21.57 -999.99  -21.57    0.00000     0.00  LINEAR    3.90362E-02  -163.38    0.00000E+00     0.00
    0.00    20.00    -999.99 -999.99 -999.99    0.00000     0.00            0.00000E+00     0.00    0.00000E+00     0.00
 -180.00    25.00    -999.99 -999.99 -999.99    0.00000     0.00            4.56991E-12    86.00    0.00000E+00     0.00
 -175.00    25.00     -21.58 -999.99  -21.58    0.00000     0.00  LINEAR    3.90158E-02  -179.77    0.00000E+00     0.00
 -170.00    25.00     -15.55 -999.99  -15.55    0.00000     0.00  LINEAR    7.81436E-02    94.59    0.00000E+00     0.00
 -165.00    25.00     -11.96 -999.99  -11.96    0.00000     0.00  LINEAR    1.18095E-01     9.97    0.00000E+00     0.00
 -160.00    25.00      -9.41 -999.99   -9.41    0.00000     0.00  LINEAR    1.58366E-01   -72.61    0.00000E+00     0.00
 -155.00    25.00      -7.50 -999.99   -7.50    0.00000     0.00  LINEAR    1.97292E-01  -152.67    0.00000E+00     0.00
 -150.00    25.00      -5.99 -999.99   -5.99    0.00000     0.00  LINEAR    2.34645E-01   130.18    0.00000E+00     0.00
 -145.00    25.00      -4.72 -999.99   -4.72    0.00000     0.00  LINEAR    2.71686E-01    56.76    0.00000E+00     0.00
 -140.00    25.00      -3.62 -999.99   -3.62    0.00000     0.00  LINEAR    3.08573E-01   -12.03    0.00000E+00     0.00
 -135.00    25.00      -2.67 -999.99   -2.67    0.00000     0.00  LINEAR    3.43925E-01   -75.69    0.00000E+00     0.00
 -130.00    25.00      -1.88 -999.99   -1.88    0.00000     0.00  LINEAR    3.76735E-01  -134.02    0.00000E+00     0.00
 -125.00    25.00      -1.21 -999.99   -1.21    0.00000     0.00  LINEAR    4.07217E-01   173.23    0.00000E+00     0.00
 -120.00    25.00      -0.62 -999.99   -0.62    0.00000     0.00  LINEAR    4.35840E-01   126.46    0.00000E+00     0.00
 -115.00    25.00      -0.10 -999.99   -0.10    0.00000     0.00  LINEAR    4.62321E-01    86.16    0.00000E+00     0.00
 -110.00    25.00       0.32 -999.99    0.32    0.00000     0.00  LINEAR    4.85649E-01    52.75    0.00000E+00     0.00
 -105.00    25.00       0.66 -999.99    0.66    0.00000     0.00  LINEAR    5.04704E-01    26.50    0.00000E+00     0.00
 -100.00    25.00       0.89 -999.99    0.89    0.00000     0.00  LINEAR    5.18687E-01     7.62    0.00000E+00     0.00
  -95.00    25.00       1.04 -999.99    1.04    0.00000     0.00  LINEAR    5.27182E-01    -3.76    0.00000E+00     0.00
  -90.00    25.00       1.08 -999.99    1.08    0.00000     0.00  LINEAR    5.30026E-01    -7.57    0.00000E+00     0.00
  -85.00    25.00       1.04 -999.99    1.04    0.00000     0.00  LINEAR    5.27182E-01    -3.76    0.00000E+00     0.00
  -80.00    25.00       0.89 -999.99    0.89    0.00000     0.00  LINEAR    5.18687E-01     7.62    0.00000E+00     0.00
  -75.00    25.00       0.66 -999.99    0.66    0.00000     0.00  LINEAR    5.04704E-01    26.50    0.00000E+00     0.00
  -70.00    25.00       0.32 -999.99    0.32    0.00000     0.00  LINEAR    4.85649E-01    52.75    0.00000E+00     0.00
  -65.00    25.00      -0.10 -999.99   -0.10    0.00000     0.00  LINEAR    4.62321E-01    86.16    0.00000E+00     0.00
  -60.00    25.00      -0.62 -999.99   -0.62    0.00000     0.00  LINEAR    4.35840E-01   126.46    0.00000E+00     0.00
  -55.00    25.00      -1.21 -999.99   -1.21    0.00000     0.00  LINEAR    4.07217E-01   173.23    0.00000E+00     0.00
  -50.00    25.00      -1.88 -999.99   -1.88    0.00000     0.00  LINEAR    3.76735E-01  -134.02    0.00000E+00     0.00
  -45.00    25.00      -2.67 -999.99   -2.67    0.00000     0.00  LINEAR    3.43925E-01   -75.69    0.00000E+00     0.00
  -40.00    25.00      -3.62 -999.99   -3.62    0.00000     0.00  LINEAR    3.08573E-01   -12.03    0.00000E+00     0.00
  -35.00    25.00      -4.72 -999.99   -4.72    0.00000     0.00  LINEAR    2.71686E-01    56.76    0.00000E+00     0.00
  -30.00    25.00      -5.99 -999.99   -5.99    0.00000     0.00  LINEAR    2.34645E-01   130.18    0.00000E+00     0.00
  -25.00    25.00      -7.50 -999.99   -7.50    0.00000     0.00  LINEAR    1.97292E-01  -152.67    0.00000E+00     0.00
  -20.00    25.00      -9.41 -999.99   -9.41    0.00000     0.00  LINEAR    1.58366E-01   -72.61    0.00000E+00     0.00
  -15.00    25.00     -11.96 -999.99  -11.96    0.00000     0.00  LINEAR    1.18095E-01     9.97    0.00000E+00     0.00
  -10.00    25.00     -15.55 -999.99  -15.55    0.00000     0.00  LINEAR    7.81436E-02    94.59    0.00000E+00     0.00
   -5.00    25.00     -21.58 -999.99  -21.58    0.00000     0.00  LINEAR    3.90158E-02  -179.77    0.00000E+00     0.00
    0.00    25.00    -999.99 -999.99 -999.99    0.00000     0.00            0.00000E+00     0.00    0.00000E+00     0.00
 -180.00    30.00    -999.99 -999.99 -999.99    0.00000     0.00            4.56991E-12    86.00    0.00000E+00     0.00
 -175.00    30.00     -21.58 -999.99  -21.58    0.00000     0.00  LINEAR    3.89983E-02   164.47    0.00000E+00     0.00
 -170.00    30.00     -15.53 -999.99  -15.53    0.00000     0.00  LINEAR    7.82399E-02    63.01    0.00000E+00     0.00
 -165.00    30.00     -11.94 -999.99  -11.94    0.00000     0.00  LINEAR    1.18332E-01   -37.07    0.00000E+00     0.00
 -160.00    30.00      -9.45 -999.99   -9.45    0.00000     0.00  LINEAR    1.57557E-01  -134.78    0.00000E+00     0.00
 -155.00    30.00      -7.61 -999.99   -7.61    0.00000     0.00  LINEAR    1.94752E-01   130.20    0.00000E+00     0.00
 -150.00    30.00      -6.11 -999.99   -6.11    0.00000     0.00  LINEAR    2.31642E-01    38.89    0.00000E+00     0.00
 -145.00    30.00      -4.83 -999.99   -4.83    0.00000     0.00  LINEAR    2.68362E-01   -47.45    0.00000E+00     0.00
 -140.00    30.00      -3.77 -999.99   -3.77    0.00000     0.00  LINEAR    3.03018E-01  -128.46    0.00000E+00     0.00
 -135.00    30.00      -2.88 -999.99   -2.88    0.00000     0.00  LINEAR    3.35904E-01   155.92    0.00000E+00     0.00
 -130.00    30.00      -2.07 -999.99   -2.07    0.00000     0.00  LINEAR    3.68819E-01    86.23    0.00000E+00     0.00
 -125.00    30.00      -1.33 -999.99   -1.33    0.00000     0.00  LINEAR    4.01352E-01    23.36    0.00000E+00     0.00
 -120.00    30.00      -0.72 -999.99   -0.72    0.00000     0.00  LINEAR    4.30922E-01   -32.06    0.00000E+00     0.00
 -115.00    30.00      -0.23 -999.99   -0.23    0.00000     0.00  LINEAR    4.55500E-01   -79.69    0.00000E+00     0.00
 -110.00    30.00       0.13 -999.99    0.13    0.00000     0.00  LINEAR    4.74757E-01  -119.25    0.00000E+00     0.00
 -105.00    30.00       0.39 -999.99    0.39    0.00000     0.00  LINEAR    4.89262E-01  -150.44    0.00000E+00     0.00
 -100.00    30.00       0.57 -999.99    0.57    0.00000     0.00  LINEAR    4.99524E-01  -172.94    0.00000E+00     0.00
  -95.00    30.00       0.67 -999.99    0.67    0.00000     0.00  LINEAR    5.05707E-01   173.46    0.00000E+00     0.00
  -90.00    30.00       0.71 -999.99    0.71    0.00000     0.00  LINEAR    5.07780E-01   168.92    0.00000E+00     0.00
  -85.00    30.00       0.67 -999.99    0.67    0.00000     0.00  LINEAR    5.05707E-01   173.46    0.00000E+00     0.00
  -80.00    30.00       0.57 -999.99    0.57    0.00000     0.00  LINEAR    4.99524E-01  -172.94    0.00000E+00     0.00
  -75.00    30.00       0.39 -999.99    0.39    0.00000     0.00  LINEAR    4.89262E-01  -150.44    0.00000E+00     0.00
  -70.00    30.00       0.13 -999.99    0.13    0.00000     0.00  LINEAR    4.74757E-01  -119.25    0.00000E+00     0.00
  -65.00    30.00      -0.23 -999.99   -0.23    0.00000     0.00  LINEAR    4.55500E-01   -79.69    0.00000E+00     0.00
  -60.00    30.00      -0.72 -999.99   -0.72    0.00000     0.00  LINEAR    4.30922E-01   -32.06    0.00000E+00     0.00
  -55.00    30.00      -1.33 -999.99   -1.33    0.00000     0.00  LINEAR    4.01352E-01    23.36    0.00000E+00     0.00
  -50.00    30.00      -2.07 -999.99   -2.07    0.00000     0.00  LINEAR    3.68819E-01    86.23    0.00000E+00     0.00
  -45.00    30.00      -2.88 -999.99   -2.88    0.00000     0.00  LINEAR    3.35904E-01   155.92    0.00000E+00     0.00
  -40.00    30.00      -3.77 -999.99   -3.77    0.00000     0.00  LINEAR    3.03018E-01  -128.46    0.00000E+00     0.00
  -35.00    30.00      -4.83 -999.99   -4.83    0.00000     0.00  LINEAR    2.68362E-01   -47.45    0.00000E+00     0.00
  -30.00    30.00      -6.11 -999.99   -6.11    0.00000     0.00  LINEAR    2.31642E-01    38.89    0.00000E+00     0.00
  -25.00    30.00      -7.61 -999.99   -7.61    0.00000     0.00  LINEAR    1.94752E-01   130.20    0.00000E+00     0.00
  -20.00    30.00      -9.45 -999.99   -9.45    0.00000     0.00  LINEAR    1.57557E-01  -134.78    0.00000E+00     0.00
  -15.00    30.00     -11.94 -999.99  -11.94    0.00000     0.00  LINEAR    1.18332E-01   -37.07    0.00000E+00     0.00
  -10.00    30.00     -15.53 -999.99  -15.53    0.00000     0.00  LINEAR    7.82399E-02    63.01    0.00000E+00     0.00
   -5.00    30.00     -21.58 -999.99  -21.58    0.00000     0.00  LINEAR    3.89983E-02   164.47    0.00000E+00     0.00
    0.00    30.00    -999.99 -999.99 -999.99    0.00000     0.00            0.00000E+00     0.00    0.00000E+00     0.00
 -180.00    35.00    -999.99 -999.99 -999.99    0.00000     0.00            4.56991E-12    86.00    0.00000E+00     0.00
 -175.00    35.00     -21.59 -999.99  -21.59    0.00000     0.00  LINEAR    3.89857E-02   149.47    0.00000E+00     0.00
 -170.00    35.00     -15.52 -999.99  -15.52    0.00000     0.00  LINEAR    7.83737E-02    32.97    0.00000E+00     0.00
 -165.00    35.00     -11.95 -999.99  -11.95    0.00000     0.00  LINEAR    1.18267E-01   -81.77    0.00000E+00     0.00
 -160.00    35.00      -9.54 -999.99   -9.54    0.00000     0.00  LINEAR    1.56101E-01   165.95    0.00000E+00     0.00
 -155.00    35.00      -7.71 -999.99   -7.71    0.00000     0.00  LINEAR    1.92668E-01    56.81    0.00000E+00     0.00
 -150.00    35.00      -6.20 -999.99   -6.20    0.00000     0.00  LINEAR    2.29295E-01   -47.43    0.00000E+00     0.00
 -145.00    35.00      -4.98 -999.99   -4.98    0.00000     0.00  LINEAR    2.63790E-01  -146.24    0.00000E+00     0.00
 -140.00    35.00      -3.94 -999.99   -3.94    0.00000     0.00  LINEAR    2.97284E-01   120.20    0.00000E+00     0.00
 -135.00    35.00      -2.98 -999.99   -2.98    0.00000     0.00  LINEAR    3.32179E-01    32.87    0.00000E+00     0.00
 -130.00    35.00      -2.15 -999.99   -2.15    0.00000     0.00  LINEAR    3.65412E-01   -47.07    0.00000E+00     0.00
[...]
  -70.00   340.00       0.53 -999.99    0.53    0.00000     0.00  LINEAR    4.97289E-01   -65.06    0.00000E+00     0.00
  -65.00   340.00       0.12 -999.99    0.12    0.00000     0.00  LINEAR    4.74468E-01   -91.40    0.00000E+00     0.00
  -60.00   340.00      -0.38 -999.99   -0.38    0.00000     0.00  LINEAR    4.47619E-01  -123.16    0.00000E+00     0.00
  -55.00   340.00      -1.00 -999.99   -1.00    0.00000     0.00  LINEAR    4.17249E-01  -160.16    0.00000E+00     0.00
  -50.00   340.00      -1.72 -999.99   -1.72    0.00000     0.00  LINEAR    3.84063E-01   157.80    0.00000E+00     0.00
  -45.00   340.00      -2.55 -999.99   -2.55    0.00000     0.00  LINEAR    3.48996E-01   110.94    0.00000E+00     0.00
  -40.00   340.00      -3.49 -999.99   -3.49    0.00000     0.00  LINEAR    3.12919E-01    59.61    0.00000E+00     0.00
  -35.00   340.00      -4.58 -999.99   -4.58    0.00000     0.00  LINEAR    2.76146E-01     4.28    0.00000E+00     0.00
  -30.00   340.00      -5.86 -999.99   -5.86    0.00000     0.00  LINEAR    2.38288E-01   -54.51    0.00000E+00     0.00
  -25.00   340.00      -7.43 -999.99   -7.43    0.00000     0.00  LINEAR    1.98915E-01  -116.28    0.00000E+00     0.00
  -20.00   340.00      -9.41 -999.99   -9.41    0.00000     0.00  LINEAR    1.58427E-01   179.31    0.00000E+00     0.00
  -15.00   340.00     -11.97 -999.99  -11.97    0.00000     0.00  LINEAR    1.17951E-01   112.67    0.00000E+00     0.00
  -10.00   340.00     -15.53 -999.99  -15.53    0.00000     0.00  LINEAR    7.82362E-02    44.43    0.00000E+00     0.00
   -5.00   340.00     -21.57 -999.99  -21.57    0.00000     0.00  LINEAR    3.90731E-02   -24.65    0.00000E+00     0.00
    0.00   340.00    -999.99 -999.99 -999.99    0.00000     0.00            0.00000E+00     0.00    0.00000E+00     0.00
 -180.00   345.00    -999.99 -999.99 -999.99    0.00000     0.00            4.56991E-12    86.00    0.00000E+00     0.00
 -175.00   345.00     -21.56 -999.99  -21.56    0.00000     0.00  LINEAR    3.90858E-02   -41.53    0.00000E+00     0.00
 -170.00   345.00     -15.53 -999.99  -15.53    0.00000     0.00  LINEAR    7.82524E-02    10.65    0.00000E+00     0.00
 -165.00   345.00     -11.98 -999.99  -11.98    0.00000     0.00  LINEAR    1.17745E-01    62.20    0.00000E+00     0.00
 -160.00   345.00      -9.44 -999.99   -9.44    0.00000     0.00  LINEAR    1.57886E-01   112.66    0.00000E+00     0.00
 -155.00   345.00      -7.44 -999.99   -7.44    0.00000     0.00  LINEAR    1.98715E-01   161.52    0.00000E+00     0.00
 -150.00   345.00      -5.81 -999.99   -5.81    0.00000     0.00  LINEAR    2.39791E-01  -151.66    0.00000E+00     0.00
 -145.00   345.00      -4.45 -999.99   -4.45    0.00000     0.00  LINEAR    2.80356E-01  -107.20    0.00000E+00     0.00
 -140.00   345.00      -3.31 -999.99   -3.31    0.00000     0.00  LINEAR    3.19690E-01   -65.40    0.00000E+00     0.00
 -135.00   345.00      -2.34 -999.99   -2.34    0.00000     0.00  LINEAR    3.57337E-01   -26.54    0.00000E+00     0.00
 -130.00   345.00      -1.51 -999.99   -1.51    0.00000     0.00  LINEAR    3.93049E-01     9.10    0.00000E+00     0.00
 -125.00   345.00      -0.80 -999.99   -0.80    0.00000     0.00  LINEAR    4.26592E-01    41.22    0.00000E+00     0.00
 -120.00   345.00      -0.19 -999.99   -0.19    0.00000     0.00  LINEAR    4.57578E-01    69.56    0.00000E+00     0.00
 -115.00   345.00       0.32 -999.99    0.32    0.00000     0.00  LINEAR    4.85429E-01    93.89    0.00000E+00     0.00
 -110.00   345.00       0.74 -999.99    0.74    0.00000     0.00  LINEAR    5.09457E-01   114.02    0.00000E+00     0.00
 -105.00   345.00       1.07 -999.99    1.07    0.00000     0.00  LINEAR    5.28972E-01   129.82    0.00000E+00     0.00
 -100.00   345.00       1.30 -999.99    1.30    0.00000     0.00  LINEAR    5.43371E-01   141.17    0.00000E+00     0.00
  -95.00   345.00       1.44 -999.99    1.44    0.00000     0.00  LINEAR    5.52199E-01   148.01    0.00000E+00     0.00
  -90.00   345.00       1.49 -999.99    1.49    0.00000     0.00  LINEAR    5.55173E-01   150.30    0.00000E+00     0.00
  -85.00   345.00       1.44 -999.99    1.44    0.00000     0.00  LINEAR    5.52199E-01   148.01    0.00000E+00     0.00
  -80.00   345.00       1.30 -999.99    1.30    0.00000     0.00  LINEAR    5.43371E-01   141.17    0.00000E+00     0.00
  -75.00   345.00       1.07 -999.99    1.07    0.00000     0.00  LINEAR    5.28972E-01   129.82    0.00000E+00     0.00
  -70.00   345.00       0.74 -999.99    0.74    0.00000     0.00  LINEAR    5.09457E-01   114.02    0.00000E+00     0.00
  -65.00   345.00       0.32 -999.99    0.32    0.00000     0.00  LINEAR    4.85429E-01    93.89    0.00000E+00     0.00
  -60.00   345.00      -0.19 -999.99   -0.19    0.00000     0.00  LINEAR    4.57578E-01    69.56    0.00000E+00     0.00
  -55.00   345.00      -0.80 -999.99   -0.80    0.00000     0.00  LINEAR    4.26592E-01    41.22    0.00000E+00     0.00
  -50.00   345.00      -1.51 -999.99   -1.51    0.00000     0.00  LINEAR    3.93049E-01     9.10    0.00000E+00     0.00
  -45.00   345.00      -2.34 -999.99   -2.34    0.00000     0.00  LINEAR    3.57337E-01   -26.54    0.00000E+00     0.00
  -40.00   345.00      -3.31 -999.99   -3.31    0.00000     0.00  LINEAR    3.19690E-01   -65.40    0.00000E+00     0.00
  -35.00   345.00      -4.45 -999.99   -4.45    0.00000     0.00  LINEAR    2.80356E-01  -107.20    0.00000E+00     0.00
  -30.00   345.00      -5.81 -999.99   -5.81    0.00000     0.00  LINEAR    2.39791E-01  -151.66    0.00000E+00     0.00
  -25.00   345.00      -7.44 -999.99   -7.44    0.00000     0.00  LINEAR    1.98715E-01   161.52    0.00000E+00     0.00
  -20.00   345.00      -9.44 -999.99   -9.44    0.00000     0.00  LINEAR    1.57886E-01   112.66    0.00000E+00     0.00
  -15.00   345.00     -11.98 -999.99  -11.98    0.00000     0.00  LINEAR    1.17745E-01    62.20    0.00000E+00     0.00
  -10.00   345.00     -15.53 -999.99  -15.53    0.00000     0.00  LINEAR    7.82524E-02    10.65    0.00000E+00     0.00
   -5.00   345.00     -21.56 -999.99  -21.56    0.00000     0.00  LINEAR    3.90858E-02   -41.53    0.00000E+00     0.00
    0.00   345.00    -999.99 -999.99 -999.99    0.00000     0.00            0.00000E+00     0.00    0.00000E+00     0.00
 -180.00   350.00    -999.99 -999.99 -999.99    0.00000     0.00            4.56991E-12    86.00    0.00000E+00     0.00
 -175.00   350.00     -21.56 -999.99  -21.56    0.00000     0.00  LINEAR    3.90957E-02   -58.81    0.00000E+00     0.00
 -170.00   350.00     -15.53 -999.99  -15.53    0.00000     0.00  LINEAR    7.83032E-02   -23.85    0.00000E+00     0.00
 -165.00   350.00     -11.98 -999.99  -11.98    0.00000     0.00  LINEAR    1.17748E-01    10.64    0.00000E+00     0.00
 -160.00   350.00      -9.45 -999.99   -9.45    0.00000     0.00  LINEAR    1.57581E-01    44.40    0.00000E+00     0.00
 -155.00   350.00      -7.47 -999.99   -7.47    0.00000     0.00  LINEAR    1.97918E-01    77.16    0.00000E+00     0.00
 -150.00   350.00      -5.84 -999.99   -5.84    0.00000     0.00  LINEAR    2.38747E-01   108.64    0.00000E+00     0.00
 -145.00   350.00      -4.46 -999.99   -4.46    0.00000     0.00  LINEAR    2.79858E-01   138.56    0.00000E+00     0.00
 -140.00   350.00      -3.28 -999.99   -3.28    0.00000     0.00  LINEAR    3.20828E-01   166.69    0.00000E+00     0.00
 -135.00   350.00      -2.25 -999.99   -2.25    0.00000     0.00  LINEAR    3.61053E-01  -167.20    0.00000E+00     0.00
 -130.00   350.00      -1.37 -999.99   -1.37    0.00000     0.00  LINEAR    3.99819E-01  -143.30    0.00000E+00     0.00
 -125.00   350.00      -0.61 -999.99   -0.61    0.00000     0.00  LINEAR    4.36367E-01  -121.78    0.00000E+00     0.00
 -120.00   350.00       0.04 -999.99    0.04    0.00000     0.00  LINEAR    4.69944E-01  -102.80    0.00000E+00     0.00
 -115.00   350.00       0.57 -999.99    0.57    0.00000     0.00  LINEAR    4.99827E-01   -86.49    0.00000E+00     0.00
 -110.00   350.00       1.01 -999.99    1.01    0.00000     0.00  LINEAR    5.25345E-01   -72.97    0.00000E+00     0.00
 -105.00   350.00       1.34 -999.99    1.34    0.00000     0.00  LINEAR    5.45898E-01   -62.34    0.00000E+00     0.00
 -100.00   350.00       1.58 -999.99    1.58    0.00000     0.00  LINEAR    5.60976E-01   -54.70    0.00000E+00     0.00
  -95.00   350.00       1.72 -999.99    1.72    0.00000     0.00  LINEAR    5.70188E-01   -50.08    0.00000E+00     0.00
  -90.00   350.00       1.76 -999.99    1.76    0.00000     0.00  LINEAR    5.73286E-01   -48.54    0.00000E+00     0.00
  -85.00   350.00       1.72 -999.99    1.72    0.00000     0.00  LINEAR    5.70188E-01   -50.08    0.00000E+00     0.00
  -80.00   350.00       1.58 -999.99    1.58    0.00000     0.00  LINEAR    5.60976E-01   -54.70    0.00000E+00     0.00
  -75.00   350.00       1.34 -999.99    1.34    0.00000     0.00  LINEAR    5.45898E-01   -62.34    0.00000E+00     0.00
  -70.00   350.00       1.01 -999.99    1.01    0.00000     0.00  LINEAR    5.25345E-01   -72.97    0.00000E+00     0.00
  -65.00   350.00       0.57 -999.99    0.57    0.00000     0.00  LINEAR    4.99827E-01   -86.49    0.00000E+00     0.00
  -60.00   350.00       0.04 -999.99    0.04    0.00000     0.00  LINEAR    4.69944E-01  -102.80    0.00000E+00     0.00
  -55.00   350.00      -0.61 -999.99   -0.61    0.00000     0.00  LINEAR    4.36367E-01  -121.78    0.00000E+00     0.00
  -50.00   350.00      -1.37 -999.99   -1.37    0.00000     0.00  LINEAR    3.99819E-01  -143.30    0.00000E+00     0.00
  -45.00   350.00      -2.25 -999.99   -2.25    0.00000     0.00  LINEAR    3.61053E-01  -167.20    0.00000E+00     0.00
  -40.00   350.00      -3.28 -999.99   -3.28    0.00000     0.00  LINEAR    3.20828E-01   166.69    0.00000E+00     0.00
  -35.00   350.00      -4.46 -999.99   -4.46    0.00000     0.00  LINEAR    2.79858E-01   138.56    0.00000E+00     0.00
  -30.00   350.00      -5.84 -999.99   -5.84    0.00000     0.00  LINEAR    2.38747E-01   108.64    0.00000E+00     0.00
  -25.00   350.00      -7.47 -999.99   -7.47    0.00000     0.00  LINEAR    1.97918E-01    77.16    0.00000E+00     0.00
  -20.00   350.00      -9.45 -999.99   -9.45    0.00000     0.00  LINEAR    1.57581E-01    44.40    0.00000E+00     0.00
  -15.00   350.00     -11.98 -999.99  -11.98    0.00000     0.00  LINEAR    1.17748E-01    10.64    0.00000E+00     0.00
  -10.00   350.00     -15.53 -999.99  -15.53    0.00000     0.00  LINEAR    7.83032E-02   -23.85    0.00000E+00     0.00
   -5.00   350.00     -21.56 -999.99  -21.56    0.00000     0.00  LINEAR    3.90957E-02   -58.81    0.00000E+00     0.00
    0.00   350.00    -999.99 -999.99 -999.99    0.00000     0.00            0.00000E+00     0.00    0.00000E+00     0.00
 -180.00   355.00    -999.99 -999.99 -999.99    0.00000     0.00            4.56991E-12    86.00    0.00000E+00     0.00
 -175.00   355.00     -21.56 -999.99  -21.56    0.00000     0.00  LINEAR    3.91006E-02   -76.34    0.00000E+00     0.00
 -170.00   355.00     -15.52 -999.99  -15.52    0.00000     0.00  LINEAR    7.83497E-02   -58.81    0.00000E+00     0.00
 -165.00   355.00     -11.98 -999.99  -11.98    0.00000     0.00  LINEAR    1.17864E-01   -41.55    0.00000E+00     0.00
 -160.00   355.00      -9.45 -999.99   -9.45    0.00000     0.00  LINEAR    1.57719E-01   -24.68    0.00000E+00     0.00
 -155.00   355.00      -7.47 -999.99   -7.47    0.00000     0.00  LINEAR    1.97921E-01    -8.32    0.00000E+00     0.00
 -150.00   355.00      -5.86 -999.99   -5.86    0.00000     0.00  LINEAR    2.38395E-01     7.40    0.00000E+00     0.00
 -145.00   355.00      -4.49 -999.99   -4.49    0.00000     0.00  LINEAR    2.78953E-01    22.35    0.00000E+00     0.00
 -140.00   355.00      -3.32 -999.99   -3.32    0.00000     0.00  LINEAR    3.19292E-01    36.44    0.00000E+00     0.00
 -135.00   355.00      -2.30 -999.99   -2.30    0.00000     0.00  LINEAR    3.58977E-01    49.53    0.00000E+00     0.00
 -130.00   355.00      -1.42 -999.99   -1.42    0.00000     0.00  LINEAR    3.97451E-01    61.54    0.00000E+00     0.00
 -125.00   355.00      -0.65 -999.99   -0.65    0.00000     0.00  LINEAR    4.34045E-01    72.36    0.00000E+00     0.00
 -120.00   355.00       0.00 -999.99    0.00    0.00000     0.00  LINEAR    4.68009E-01    81.91    0.00000E+00     0.00
 -115.00   355.00       0.55 -999.99    0.55    0.00000     0.00  LINEAR    4.98550E-01    90.12    0.00000E+00     0.00
 -110.00   355.00       1.00 -999.99    1.00    0.00000     0.00  LINEAR    5.24872E-01    96.93    0.00000E+00     0.00
 -105.00   355.00       1.34 -999.99    1.34    0.00000     0.00  LINEAR    5.46234E-01   102.28    0.00000E+00     0.00
 -100.00   355.00       1.59 -999.99    1.59    0.00000     0.00  LINEAR    5.61995E-01   106.13    0.00000E+00     0.00
  -95.00   355.00       1.74 -999.99    1.74    0.00000     0.00  LINEAR    5.71660E-01   108.45    0.00000E+00     0.00
  -90.00   355.00       1.79 -999.99    1.79    0.00000     0.00  LINEAR    5.74917E-01   109.22    0.00000E+00     0.00
  -85.00   355.00       1.74 -999.99    1.74    0.00000     0.00  LINEAR    5.71660E-01   108.45    0.00000E+00     0.00
  -80.00   355.00       1.59 -999.99    1.59    0.00000     0.00  LINEAR    5.61995E-01   106.13    0.00000E+00     0.00
  -75.00   355.00       1.34 -999.99    1.34    0.00000     0.00  LINEAR    5.46234E-01   102.28    0.00000E+00     0.00
  -70.00   355.00       1.00 -999.99    1.00    0.00000     0.00  LINEAR    5.24872E-01    96.93    0.00000E+00     0.00
  -65.00   355.00       0.55 -999.99    0.55    0.00000     0.00  LINEAR    4.98550E-01    90.12    0.00000E+00     0.00
  -60.00   355.00       0.00 -999.99    0.00    0.00000     0.00  LINEAR    4.68009E-01    81.91    0.00000E+00     0.00
  -55.00   355.00      -0.65 -999.99   -0.65    0.00000     0.00  LINEAR    4.34045E-01    72.36    0.00000E+00     0.00
  -50.00   355.00      -1.42 -999.99   -1.42    0.00000     0.00  LINEAR    3.97451E-01    61.54    0.00000E+00     0.00
  -45.00   355.00      -2.30 -999.99   -2.30    0.00000     0.00  LINEAR    3.58977E-01    49.53    0.00000E+00     0.00
  -40.00   355.00      -3.32 -999.99   -3.32    0.00000     0.00  LINEAR    3.19292E-01    36.44    0.00000E+00     0.00
  -35.00   355.00      -4.49 -999.99   -4.49    0.00000     0.00  LINEAR    2.78953E-01    22.35    0.00000E+00     0.00
  -30.00   355.00      -5.86 -999.99   -5.86    0.00000     0.00  LINEAR    2.38395E-01     7.40    0.00000E+00     0.00
  -25.00   355.00      -7.47 -999.99   -7.47    0.00000     0.00  LINEAR    1.97921E-01    -8.32    0.00000E+00     0.00
  -20.00   355.00      -9.45 -999.99   -9.45    0.00000     0.00  LINEAR    1.57719E-01   -24.68    0.00000E+00     0.00
  -15.00   355.00     -11.98 -999.99  -11.98    0.00000     0.00  LINEAR    1.17864E-01   -41.55    0.00000E+00     0.00
  -10.00   355.00     -15.52 -999.99  -15.52    0.00000     0.00  LINEAR    7.83497E-02   -58.81    0.00000E+00     0.00
   -5.00   355.00     -21.56 -999.99  -21.56    0.00000     0.00  LINEAR    3.91006E-02   -76.34    0.00000E+00     0.00
    0.00   355.00    -999.99 -999.99 -999.99    0.00000     0.00            0.00000E+00     0.00    0.00000E+00     0.00
 -180.00   360.00    -999.99 -999.99 -999.99    0.00000     0.00            4.56991E-12    86.00    0.00000E+00     0.00
 -175.00   360.00     -21.56 -999.99  -21.56    0.00000     0.00  LINEAR    3.90991E-02   -94.00    0.00000E+00     0.00
 -170.00   360.00     -15.52 -999.99  -15.52    0.00000     0.00  LINEAR    7.83565E-02   -94.01    0.00000E+00     0.00
 -165.00   360.00     -11.97 -999.99  -11.97    0.00000     0.00  LINEAR    1.17904E-01   -94.02    0.00000E+00     0.00
 -160.00   360.00      -9.44 -999.99   -9.44    0.00000     0.00  LINEAR    1.57822E-01   -94.03    0.00000E+00     0.00
 -155.00   360.00      -7.46 -999.99   -7.46    0.00000     0.00  LINEAR    1.98116E-01   -94.05    0.00000E+00     0.00
 -150.00   360.00      -5.85 -999.99   -5.85    0.00000     0.00  LINEAR    2.38695E-01   -94.07    0.00000E+00     0.00
 -145.00   360.00      -4.48 -999.99   -4.48    0.00000     0.00  LINEAR    2.79356E-01   -94.09    0.00000E+00     0.00
 -140.00   360.00      -3.31 -999.99   -3.31    0.00000     0.00  LINEAR    3.19775E-01   -94.12    0.00000E+00     0.00
 -135.00   360.00      -2.29 -999.99   -2.29    0.00000     0.00  LINEAR    3.59503E-01   -94.14    0.00000E+00     0.00
 -130.00   360.00      -1.41 -999.99   -1.41    0.00000     0.00  LINEAR    3.97972E-01   -94.16    0.00000E+00     0.00
 -125.00   360.00      -0.64 -999.99   -0.64    0.00000     0.00  LINEAR    4.34515E-01   -94.18    0.00000E+00     0.00
 -120.00   360.00       0.01 -999.99    0.01    0.00000     0.00  LINEAR    4.68388E-01   -94.20    0.00000E+00     0.00
 -115.00   360.00       0.56 -999.99    0.56    0.00000     0.00  LINEAR    4.98811E-01   -94.22    0.00000E+00     0.00
 -110.00   360.00       1.00 -999.99    1.00    0.00000     0.00  LINEAR    5.25005E-01   -94.24    0.00000E+00     0.00
 -105.00   360.00       1.34 -999.99    1.34    0.00000     0.00  LINEAR    5.46246E-01   -94.25    0.00000E+00     0.00
 -100.00   360.00       1.59 -999.99    1.59    0.00000     0.00  LINEAR    5.61908E-01   -94.26    0.00000E+00     0.00
  -95.00   360.00       1.74 -999.99    1.74    0.00000     0.00  LINEAR    5.71509E-01   -94.26    0.00000E+00     0.00
  -90.00   360.00       1.79 -999.99    1.79    0.00000     0.00  LINEAR    5.74744E-01   -94.27    0.00000E+00     0.00
  -85.00   360.00       1.74 -999.99    1.74    0.00000     0.00  LINEAR    5.71509E-01   -94.26    0.00000E+00     0.00
  -80.00   360.00       1.59 -999.99    1.59    0.00000     0.00  LINEAR    5.61908E-01   -94.26    0.00000E+00     0.00
  -75.00   360.00       1.34 -999.99    1.34    0.00000     0.00  LINEAR    5.46246E-01   -94.25    0.00000E+00     0.00
  -70.00   360.00       1.00 -999.99    1.00    0.00000     0.00  LINEAR    5.25005E-01   -94.24    0.00000E+00     0.00
  -65.00   360.00       0.56 -999.99    0.56    0.00000     0.00  LINEAR    4.98811E-01   -94.22    0.00000E+00     0.00
  -60.00   360.00       0.01 -999.99    0.01    0.00000     0.00  LINEAR    4.68388E-01   -94.20    0.00000E+00     0.00
  -55.00   360.00      -0.64 -999.99   -0.64    0.00000     0.00  LINEAR    4.34515E-01   -94.18    0.00000E+00     0.00
  -50.00   360.00      -1.41 -999.99   -1.41    0.00000     0.00  LINEAR    3.97972E-01   -94.16    0.00000E+00     0.00
  -45.00   360.00      -2.29 -999.99   -2.29    0.00000     0.00  LINEAR    3.59503E-01   -94.14    0.00000E+00     0.00
  -40.00   360.00      -3.31 -999.99   -3.31    0.00000     0.00  LINEAR    3.19775E-01   -94.12    0.00000E+00     0.00
  -35.00   360.00      -4.48 -999.99   -4.48    0.00000     0.00  LINEAR    2.79356E-01   -94.09    0.00000E+00     0.00
  -30.00   360.00      -5.85 -999.99   -5.85    0.00000     0.00  LINEAR    2.38695E-01   -94.07    0.00000E+00     0.00
  -25.00   360.00      -7.46 -999.99   -7.46    0.00000     0.00  LINEAR    1.98116E-01   -94.05    0.00000E+00     0.00
  -20.00   360.00      -9.44 -999.99   -9.44    0.00000     0.00  LINEAR    1.57822E-01   -94.03    0.00000E+00     0.00
  -15.00   360.00     -11.97 -999.99  -11.97    0.00000     0.00  LINEAR    1.17904E-01   -94.02    0.00000E+00     0.00
  -10.00   360.00     -15.52 -999.99  -15.52    0.00000     0.00  LINEAR    7.83565E-02   -94.01    0.00000E+00     0.00
   -5.00   360.00     -21.56 -999.99  -21.56    0.00000     0.00  LINEAR    3.90991E-02   -94.00    0.00000E+00     0.00
    0.00   360.00    -999.99 -999.99 -999.99    0.00000     0.00            0.00000E+00     0.00    0.00000E+00     0.00


   AVERAGE POWER GAIN= 5.81699E-01       SOLID ANGLE USED IN AVERAGING=( 4.0000)*PI STERADIANS.








 ***** DATA CARD NO. 26   EN   0    37    73  1003 -1.80000E+02  0.00000E+00  5.00000E+00  5.00000E+00  0.00000E+00  0.00000E+00

 RUN TIME =     0.344
