1



                                 *********************************************

                                    NUMERICAL ELECTROMAGNETICS CODE (NEC-2D)

                                 *********************************************




                                     - - - - COMMENTS - - - -


                                                                                                     
                          forw:-999, 0 ; back: 0, 0                                                  
                                                                                                     




                                 - - - STRUCTURE SPECIFICATION - - -

                                     COORDINATES MUST BE INPUT IN
                                     METERS OR BE SCALED TO METERS
                                     BEFORE STRUCTURE INPUT IS ENDED


  WIRE                                                                               NO. OF    FIRST  LAST     TAG
  NO.        X1         Y1         Z1          X2         Y2         Z2      RADIUS   SEG.     SEG.   SEG.     NO.
     1    0.00000    0.00000   -0.17430     0.00000    0.00000    0.17430    0.00010      9        1     9       1
     2    0.00000    0.34860   -0.17430     0.00000    0.34860    0.17430    0.00010      9       10    18       2
     3    0.00000    0.69719   -0.17430     0.00000    0.69719    0.17430    0.00010      9       19    27       3
     4    0.00000    1.04579   -0.17430     0.00000    1.04579    0.17430    0.00010      9       28    36       4
     5    0.00000    1.39438   -0.17430     0.00000    1.39438    0.17430    0.00010      9       37    45       5
     6    0.00000    1.74298   -0.17430     0.00000    1.74298    0.17430    0.00010      9       46    54       6
     7    0.00000    2.09158   -0.17430     0.00000    2.09158    0.17430    0.00010      9       55    63       7
     8    0.00000    2.44017   -0.17430     0.00000    2.44017    0.17430    0.00010      9       64    72       8
     9    0.00000    2.78877   -0.17430     0.00000    2.78877    0.17430    0.00010      9       73    81       9
    10    0.00000    3.13736   -0.17430     0.00000    3.13736    0.17430    0.00010      9       82    90      10
    11    0.00000    3.48596   -0.17430     0.00000    3.48596    0.17430    0.00010      9       91    99      11
    12    0.00000    3.83455   -0.17430     0.00000    3.83455    0.17430    0.00010      9      100   108      12
    13    0.00000    4.18315   -0.17430     0.00000    4.18315    0.17430    0.00010      9      109   117      13
    14    0.00000    4.53175   -0.17430     0.00000    4.53175    0.17430    0.00010      9      118   126      14
    15    0.00000    4.88034   -0.17430     0.00000    4.88034    0.17430    0.00010      9      127   135      15
    16    0.00000    5.22894   -0.17430     0.00000    5.22894    0.17430    0.00010      9      136   144      16
    17    0.00000    5.57753   -0.17430     0.00000    5.57753    0.17430    0.00010      9      145   153      17
    18    0.00000    5.92613   -0.17430     0.00000    5.92613    0.17430    0.00010      9      154   162      18
    19    0.00000    6.27473   -0.17430     0.00000    6.27473    0.17430    0.00010      9      163   171      19
    20    0.00000    6.62332   -0.17430     0.00000    6.62332    0.17430    0.00010      9      172   180      20

   TOTAL SEGMENTS USED=  180     NO. SEG. IN A SYMMETRIC CELL=  180     SYMMETRY FLAG=  0


         - MULTIPLE WIRE JUNCTIONS -
 JUNCTION    SEGMENTS  (- FOR END 1, + FOR END 2)
  NONE




                                 - - - - SEGMENTATION DATA - - - -

                                        COORDINATES IN METERS

                         I+ AND I- INDICATE THE SEGMENTS BEFORE AND AFTER I


  SEG.   COORDINATES OF SEG. CENTER     SEG.     ORIENTATION ANGLES    WIRE    CONNECTION DATA   TAG
  NO.       X         Y         Z       LENGTH     ALPHA     BETA      RADIUS    I-   I    I+    NO.
     1   0.00000   0.00000  -0.15493   0.03873   90.00000   0.00000   0.00010     0    1    2      1
     2   0.00000   0.00000  -0.11620   0.03873   90.00000   0.00000   0.00010     1    2    3      1
     3   0.00000   0.00000  -0.07747   0.03873   90.00000   0.00000   0.00010     2    3    4      1
     4   0.00000   0.00000  -0.03873   0.03873   90.00000   0.00000   0.00010     3    4    5      1
     5   0.00000   0.00000   0.00000   0.03873   90.00000   0.00000   0.00010     4    5    6      1
     6   0.00000   0.00000   0.03873   0.03873   90.00000   0.00000   0.00010     5    6    7      1
     7   0.00000   0.00000   0.07747   0.03873   90.00000   0.00000   0.00010     6    7    8      1
     8   0.00000   0.00000   0.11620   0.03873   90.00000   0.00000   0.00010     7    8    9      1
     9   0.00000   0.00000   0.15493   0.03873   90.00000   0.00000   0.00010     8    9    0      1
    10   0.00000   0.34860  -0.15493   0.03873   90.00000   0.00000   0.00010     0   10   11      2
    11   0.00000   0.34860  -0.11620   0.03873   90.00000   0.00000   0.00010    10   11   12      2
    12   0.00000   0.34860  -0.07747   0.03873   90.00000   0.00000   0.00010    11   12   13      2
    13   0.00000   0.34860  -0.03873   0.03873   90.00000   0.00000   0.00010    12   13   14      2
    14   0.00000   0.34860   0.00000   0.03873   90.00000   0.00000   0.00010    13   14   15      2
    15   0.00000   0.34860   0.03873   0.03873   90.00000   0.00000   0.00010    14   15   16      2
    16   0.00000   0.34860   0.07747   0.03873   90.00000   0.00000   0.00010    15   16   17      2
    17   0.00000   0.34860   0.11620   0.03873   90.00000   0.00000   0.00010    16   17   18      2
    18   0.00000   0.34860   0.15493   0.03873   90.00000   0.00000   0.00010    17   18    0      2
    19   0.00000   0.69719  -0.15493   0.03873   90.00000   0.00000   0.00010     0   19   20      3
    20   0.00000   0.69719  -0.11620   0.03873   90.00000   0.00000   0.00010    19   20   21      3
    21   0.00000   0.69719  -0.07747   0.03873   90.00000   0.00000   0.00010    20   21   22      3
    22   0.00000   0.69719  -0.03873   0.03873   90.00000   0.00000   0.00010    21   22   23      3
    23   0.00000   0.69719   0.00000   0.03873   90.00000   0.00000   0.00010    22   23   24      3
    24   0.00000   0.69719   0.03873   0.03873   90.00000   0.00000   0.00010    23   24   25      3
    25   0.00000   0.69719   0.07747   0.03873   90.00000   0.00000   0.00010    24   25   26      3
    26   0.00000   0.69719   0.11620   0.03873   90.00000   0.00000   0.00010    25   26   27      3
    27   0.00000   0.69719   0.15493   0.03873   90.00000   0.00000   0.00010    26   27    0      3
    28   0.00000   1.04579  -0.15493   0.03873   90.00000   0.00000   0.00010     0   28   29      4
    29   0.00000   1.04579  -0.11620   0.03873   90.00000   0.00000   0.00010    28   29   30      4
    30   0.00000   1.04579  -0.07747   0.03873   90.00000   0.00000   0.00010    29   30   31      4
    31   0.00000   1.04579  -0.03873   0.03873   90.00000   0.00000   0.00010    30   31   32      4
    32   0.00000   1.04579   0.00000   0.03873   90.00000   0.00000   0.00010    31   32   33      4
    33   0.00000   1.04579   0.03873   0.03873   90.00000   0.00000   0.00010    32   33   34      4
    34   0.00000   1.04579   0.07747   0.03873   90.00000   0.00000   0.00010    33   34   35      4
    35   0.00000   1.04579   0.11620   0.03873   90.00000   0.00000   0.00010    34   35   36      4
    36   0.00000   1.04579   0.15493   0.03873   90.00000   0.00000   0.00010    35   36    0      4
    37   0.00000   1.39438  -0.15493   0.03873   90.00000   0.00000   0.00010     0   37   38      5
    38   0.00000   1.39438  -0.11620   0.03873   90.00000   0.00000   0.00010    37   38   39      5
    39   0.00000   1.39438  -0.07747   0.03873   90.00000   0.00000   0.00010    38   39   40      5
    40   0.00000   1.39438  -0.03873   0.03873   90.00000   0.00000   0.00010    39   40   41      5
    41   0.00000   1.39438   0.00000   0.03873   90.00000   0.00000   0.00010    40   41   42      5
    42   0.00000   1.39438   0.03873   0.03873   90.00000   0.00000   0.00010    41   42   43      5
    43   0.00000   1.39438   0.07747   0.03873   90.00000   0.00000   0.00010    42   43   44      5
    44   0.00000   1.39438   0.11620   0.03873   90.00000   0.00000   0.00010    43   44   45      5
    45   0.00000   1.39438   0.15493   0.03873   90.00000   0.00000   0.00010    44   45    0      5
    46   0.00000   1.74298  -0.15493   0.03873   90.00000   0.00000   0.00010     0   46   47      6
    47   0.00000   1.74298  -0.11620   0.03873   90.00000   0.00000   0.00010    46   47   48      6
    48   0.00000   1.74298  -0.07747   0.03873   90.00000   0.00000   0.00010    47   48   49      6
    49   0.00000   1.74298  -0.03873   0.03873   90.00000   0.00000   0.00010    48   49   50      6
    50   0.00000   1.74298   0.00000   0.03873   90.00000   0.00000   0.00010    49   50   51      6
    51   0.00000   1.74298   0.03873   0.03873   90.00000   0.00000   0.00010    50   51   52      6
    52   0.00000   1.74298   0.07747   0.03873   90.00000   0.00000   0.00010    51   52   53      6
    53   0.00000   1.74298   0.11620   0.03873   90.00000   0.00000   0.00010    52   53   54      6
    54   0.00000   1.74298   0.15493   0.03873   90.00000   0.00000   0.00010    53   54    0      6
    55   0.00000   2.09158  -0.15493   0.03873   90.00000   0.00000   0.00010     0   55   56      7
    56   0.00000   2.09158  -0.11620   0.03873   90.00000   0.00000   0.00010    55   56   57      7
    57   0.00000   2.09158  -0.07747   0.03873   90.00000   0.00000   0.00010    56   57   58      7
    58   0.00000   2.09158  -0.03873   0.03873   90.00000   0.00000   0.00010    57   58   59      7
    59   0.00000   2.09158   0.00000   0.03873   90.00000   0.00000   0.00010    58   59   60      7
    60   0.00000   2.09158   0.03873   0.03873   90.00000   0.00000   0.00010    59   60   61      7
    61   0.00000   2.09158   0.07747   0.03873   90.00000   0.00000   0.00010    60   61   62      7
    62   0.00000   2.09158   0.11620   0.03873   90.00000   0.00000   0.00010    61   62   63      7
    63   0.00000   2.09158   0.15493   0.03873   90.00000   0.00000   0.00010    62   63    0      7
    64   0.00000   2.44017  -0.15493   0.03873   90.00000   0.00000   0.00010     0   64   65      8
    65   0.00000   2.44017  -0.11620   0.03873   90.00000   0.00000   0.00010    64   65   66      8
    66   0.00000   2.44017  -0.07747   0.03873   90.00000   0.00000   0.00010    65   66   67      8
    67   0.00000   2.44017  -0.03873   0.03873   90.00000   0.00000   0.00010    66   67   68      8
    68   0.00000   2.44017   0.00000   0.03873   90.00000   0.00000   0.00010    67   68   69      8
    69   0.00000   2.44017   0.03873   0.03873   90.00000   0.00000   0.00010    68   69   70      8
    70   0.00000   2.44017   0.07747   0.03873   90.00000   0.00000   0.00010    69   70   71      8
    71   0.00000   2.44017   0.11620   0.03873   90.00000   0.00000   0.00010    70   71   72      8
    72   0.00000   2.44017   0.15493   0.03873   90.00000   0.00000   0.00010    71   72    0      8
    73   0.00000   2.78877  -0.15493   0.03873   90.00000   0.00000   0.00010     0   73   74      9
    74   0.00000   2.78877  -0.11620   0.03873   90.00000   0.00000   0.00010    73   74   75      9
    75   0.00000   2.78877  -0.07747   0.03873   90.00000   0.00000   0.00010    74   75   76      9
    76   0.00000   2.78877  -0.03873   0.03873   90.00000   0.00000   0.00010    75   76   77      9
    77   0.00000   2.78877   0.00000   0.03873   90.00000   0.00000   0.00010    76   77   78      9
    78   0.00000   2.78877   0.03873   0.03873   90.00000   0.00000   0.00010    77   78   79      9
    79   0.00000   2.78877   0.07747   0.03873   90.00000   0.00000   0.00010    78   79   80      9
    80   0.00000   2.78877   0.11620   0.03873   90.00000   0.00000   0.00010    79   80   81      9
    81   0.00000   2.78877   0.15493   0.03873   90.00000   0.00000   0.00010    80   81    0      9
    82   0.00000   3.13736  -0.15493   0.03873   90.00000   0.00000   0.00010     0   82   83     10
    83   0.00000   3.13736  -0.11620   0.03873   90.00000   0.00000   0.00010    82   83   84     10
    84   0.00000   3.13736  -0.07747   0.03873   90.00000   0.00000   0.00010    83   84   85     10
    85   0.00000   3.13736  -0.03873   0.03873   90.00000   0.00000   0.00010    84   85   86     10
    86   0.00000   3.13736   0.00000   0.03873   90.00000   0.00000   0.00010    85   86   87     10
    87   0.00000   3.13736   0.03873   0.03873   90.00000   0.00000   0.00010    86   87   88     10
    88   0.00000   3.13736   0.07747   0.03873   90.00000   0.00000   0.00010    87   88   89     10
    89   0.00000   3.13736   0.11620   0.03873   90.00000   0.00000   0.00010    88   89   90     10
    90   0.00000   3.13736   0.15493   0.03873   90.00000   0.00000   0.00010    89   90    0     10
    91   0.00000   3.48596  -0.15493   0.03873   90.00000   0.00000   0.00010     0   91   92     11
    92   0.00000   3.48596  -0.11620   0.03873   90.00000   0.00000   0.00010    91   92   93     11
    93   0.00000   3.48596  -0.07747   0.03873   90.00000   0.00000   0.00010    92   93   94     11
    94   0.00000   3.48596  -0.03873   0.03873   90.00000   0.00000   0.00010    93   94   95     11
    95   0.00000   3.48596   0.00000   0.03873   90.00000   0.00000   0.00010    94   95   96     11
    96   0.00000   3.48596   0.03873   0.03873   90.00000   0.00000   0.00010    95   96   97     11
    97   0.00000   3.48596   0.07747   0.03873   90.00000   0.00000   0.00010    96   97   98     11
    98   0.00000   3.48596   0.11620   0.03873   90.00000   0.00000   0.00010    97   98   99     11
    99   0.00000   3.48596   0.15493   0.03873   90.00000   0.00000   0.00010    98   99    0     11
   100   0.00000   3.83455  -0.15493   0.03873   90.00000   0.00000   0.00010     0  100  101     12
   101   0.00000   3.83455  -0.11620   0.03873   90.00000   0.00000   0.00010   100  101  102     12
   102   0.00000   3.83455  -0.07747   0.03873   90.00000   0.00000   0.00010   101  102  103     12
   103   0.00000   3.83455  -0.03873   0.03873   90.00000   0.00000   0.00010   102  103  104     12
   104   0.00000   3.83455   0.00000   0.03873   90.00000   0.00000   0.00010   103  104  105     12
   105   0.00000   3.83455   0.03873   0.03873   90.00000   0.00000   0.00010   104  105  106     12
   106   0.00000   3.83455   0.07747   0.03873   90.00000   0.00000   0.00010   105  106  107     12
   107   0.00000   3.83455   0.11620   0.03873   90.00000   0.00000   0.00010   106  107  108     12
   108   0.00000   3.83455   0.15493   0.03873   90.00000   0.00000   0.00010   107  108    0     12
   109   0.00000   4.18315  -0.15493   0.03873   90.00000   0.00000   0.00010     0  109  110     13
   110   0.00000   4.18315  -0.11620   0.03873   90.00000   0.00000   0.00010   109  110  111     13
   111   0.00000   4.18315  -0.07747   0.03873   90.00000   0.00000   0.00010   110  111  112     13
   112   0.00000   4.18315  -0.03873   0.03873   90.00000   0.00000   0.00010   111  112  113     13
   113   0.00000   4.18315   0.00000   0.03873   90.00000   0.00000   0.00010   112  113  114     13
   114   0.00000   4.18315   0.03873   0.03873   90.00000   0.00000   0.00010   113  114  115     13
   115   0.00000   4.18315   0.07747   0.03873   90.00000   0.00000   0.00010   114  115  116     13
   116   0.00000   4.18315   0.11620   0.03873   90.00000   0.00000   0.00010   115  116  117     13
   117   0.00000   4.18315   0.15493   0.03873   90.00000   0.00000   0.00010   116  117    0     13
   118   0.00000   4.53175  -0.15493   0.03873   90.00000   0.00000   0.00010     0  118  119     14
   119   0.00000   4.53175  -0.11620   0.03873   90.00000   0.00000   0.00010   118  119  120     14
   120   0.00000   4.53175  -0.07747   0.03873   90.00000   0.00000   0.00010   119  120  121     14
   121   0.00000   4.53175  -0.03873   0.03873   90.00000   0.00000   0.00010   120  121  122     14
   122   0.00000   4.53175   0.00000   0.03873   90.00000   0.00000   0.00010   121  122  123     14
   123   0.00000   4.53175   0.03873   0.03873   90.00000   0.00000   0.00010   122  123  124     14
   124   0.00000   4.53175   0.07747   0.03873   90.00000   0.00000   0.00010   123  124  125     14
   125   0.00000   4.53175   0.11620   0.03873   90.00000   0.00000   0.00010   124  125  126     14
   126   0.00000   4.53175   0.15493   0.03873   90.00000   0.00000   0.00010   125  126    0     14
   127   0.00000   4.88034  -0.15493   0.03873   90.00000   0.00000   0.00010     0  127  128     15
   128   0.00000   4.88034  -0.11620   0.03873   90.00000   0.00000   0.00010   127  128  129     15
   129   0.00000   4.88034  -0.07747   0.03873   90.00000   0.00000   0.00010   128  129  130     15
   130   0.00000   4.88034  -0.03873   0.03873   90.00000   0.00000   0.00010   129  130  131     15
   131   0.00000   4.88034   0.00000   0.03873   90.00000   0.00000   0.00010   130  131  132     15
   132   0.00000   4.88034   0.03873   0.03873   90.00000   0.00000   0.00010   131  132  133     15
   133   0.00000   4.88034   0.07747   0.03873   90.00000   0.00000   0.00010   132  133  134     15
   134   0.00000   4.88034   0.11620   0.03873   90.00000   0.00000   0.00010   133  134  135     15
   135   0.00000   4.88034   0.15493   0.03873   90.00000   0.00000   0.00010   134  135    0     15
   136   0.00000   5.22894  -0.15493   0.03873   90.00000   0.00000   0.00010     0  136  137     16
   137   0.00000   5.22894  -0.11620   0.03873   90.00000   0.00000   0.00010   136  137  138     16
   138   0.00000   5.22894  -0.07747   0.03873   90.00000   0.00000   0.00010   137  138  139     16
   139   0.00000   5.22894  -0.03873   0.03873   90.00000   0.00000   0.00010   138  139  140     16
   140   0.00000   5.22894   0.00000   0.03873   90.00000   0.00000   0.00010   139  140  141     16
   141   0.00000   5.22894   0.03873   0.03873   90.00000   0.00000   0.00010   140  141  142     16
   142   0.00000   5.22894   0.07747   0.03873   90.00000   0.00000   0.00010   141  142  143     16
   143   0.00000   5.22894   0.11620   0.03873   90.00000   0.00000   0.00010   142  143  144     16
   144   0.00000   5.22894   0.15493   0.03873   90.00000   0.00000   0.00010   143  144    0     16
   145   0.00000   5.57753  -0.15493   0.03873   90.00000   0.00000   0.00010     0  145  146     17
   146   0.00000   5.57753  -0.11620   0.03873   90.00000   0.00000   0.00010   145  146  147     17
   147   0.00000   5.57753  -0.07747   0.03873   90.00000   0.00000   0.00010   146  147  148     17
   148   0.00000   5.57753  -0.03873   0.03873   90.00000   0.00000   0.00010   147  148  149     17
   149   0.00000   5.57753   0.00000   0.03873   90.00000   0.00000   0.00010   148  149  150     17
   150   0.00000   5.57753   0.03873   0.03873   90.00000   0.00000   0.00010   149  150  151     17
   151   0.00000   5.57753   0.07747   0.03873   90.00000   0.00000   0.00010   150  151  152     17
   152   0.00000   5.57753   0.11620   0.03873   90.00000   0.00000   0.00010   151  152  153     17
   153   0.00000   5.57753   0.15493   0.03873   90.00000   0.00000   0.00010   152  153    0     17
   154   0.00000   5.92613  -0.15493   0.03873   90.00000   0.00000   0.00010     0  154  155     18
   155   0.00000   5.92613  -0.11620   0.03873   90.00000   0.00000   0.00010   154  155  156     18
   156   0.00000   5.92613  -0.07747   0.03873   90.00000   0.00000   0.00010   155  156  157     18
   157   0.00000   5.92613  -0.03873   0.03873   90.00000   0.00000   0.00010   156  157  158     18
   158   0.00000   5.92613   0.00000   0.03873   90.00000   0.00000   0.00010   157  158  159     18
   159   0.00000   5.92613   0.03873   0.03873   90.00000   0.00000   0.00010   158  159  160     18
   160   0.00000   5.92613   0.07747   0.03873   90.00000   0.00000   0.00010   159  160  161     18
   161   0.00000   5.92613   0.11620   0.03873   90.00000   0.00000   0.00010   160  161  162     18
   162   0.00000   5.92613   0.15493   0.03873   90.00000   0.00000   0.00010   161  162    0     18
   163   0.00000   6.27473  -0.15493   0.03873   90.00000   0.00000   0.00010     0  163  164     19
   164   0.00000   6.27473  -0.11620   0.03873   90.00000   0.00000   0.00010   163  164  165     19
   165   0.00000   6.27473  -0.07747   0.03873   90.00000   0.00000   0.00010   164  165  166     19
   166   0.00000   6.27473  -0.03873   0.03873   90.00000   0.00000   0.00010   165  166  167     19
   167   0.00000   6.27473   0.00000   0.03873   90.00000   0.00000   0.00010   166  167  168     19
   168   0.00000   6.27473   0.03873   0.03873   90.00000   0.00000   0.00010   167  168  169     19
   169   0.00000   6.27473   0.07747   0.03873   90.00000   0.00000   0.00010   168  169  170     19
   170   0.00000   6.27473   0.11620   0.03873   90.00000   0.00000   0.00010   169  170  171     19
   171   0.00000   6.27473   0.15493   0.03873   90.00000   0.00000   0.00010   170  171    0     19
   172   0.00000   6.62332  -0.15493   0.03873   90.00000   0.00000   0.00010     0  172  173     20
   173   0.00000   6.62332  -0.11620   0.03873   90.00000   0.00000   0.00010   172  173  174     20
   174   0.00000   6.62332  -0.07747   0.03873   90.00000   0.00000   0.00010   173  174  175     20
   175   0.00000   6.62332  -0.03873   0.03873   90.00000   0.00000   0.00010   174  175  176     20
   176   0.00000   6.62332   0.00000   0.03873   90.00000   0.00000   0.00010   175  176  177     20
   177   0.00000   6.62332   0.03873   0.03873   90.00000   0.00000   0.00010   176  177  178     20
   178   0.00000   6.62332   0.07747   0.03873   90.00000   0.00000   0.00010   177  178  179     20
   179   0.00000   6.62332   0.11620   0.03873   90.00000   0.00000   0.00010   178  179  180     20
   180   0.00000   6.62332   0.15493   0.03873   90.00000   0.00000   0.00010   179  180    0     20






 ***** DATA CARD NO.  1   LD   4     1     5     5  5.00000E+01  0.00000E+00  0.00000E+00  0.00000E+00  0.00000E+00  0.00000E+00
 ***** DATA CARD NO.  2   LD   4     2     5     5  5.00000E+01  0.00000E+00  0.00000E+00  0.00000E+00  0.00000E+00  0.00000E+00
 ***** DATA CARD NO.  3   LD   4     3     5     5  5.00000E+01  0.00000E+00  0.00000E+00  0.00000E+00  0.00000E+00  0.00000E+00
 ***** DATA CARD NO.  4   LD   4     4     5     5  5.00000E+01  0.00000E+00  0.00000E+00  0.00000E+00  0.00000E+00  0.00000E+00
 ***** DATA CARD NO.  5   LD   4     5     5     5  5.00000E+01  0.00000E+00  0.00000E+00  0.00000E+00  0.00000E+00  0.00000E+00
 ***** DATA CARD NO.  6   LD   4     6     5     5  5.00000E+01  0.00000E+00  0.00000E+00  0.00000E+00  0.00000E+00  0.00000E+00
 ***** DATA CARD NO.  7   LD   4     7     5     5  5.00000E+01  0.00000E+00  0.00000E+00  0.00000E+00  0.00000E+00  0.00000E+00
 ***** DATA CARD NO.  8   LD   4     8     5     5  5.00000E+01  0.00000E+00  0.00000E+00  0.00000E+00  0.00000E+00  0.00000E+00
 ***** DATA CARD NO.  9   LD   4     9     5     5  5.00000E+01  0.00000E+00  0.00000E+00  0.00000E+00  0.00000E+00  0.00000E+00
 ***** DATA CARD NO. 10   LD   4    10     5     5  5.00000E+01  0.00000E+00  0.00000E+00  0.00000E+00  0.00000E+00  0.00000E+00
 ***** DATA CARD NO. 11   LD   4    11     5     5  5.00000E+01  0.00000E+00  0.00000E+00  0.00000E+00  0.00000E+00  0.00000E+00
 ***** DATA CARD NO. 12   LD   4    12     5     5  5.00000E+01  0.00000E+00  0.00000E+00  0.00000E+00  0.00000E+00  0.00000E+00
 ***** DATA CARD NO. 13   LD   4    13     5     5  5.00000E+01  0.00000E+00  0.00000E+00  0.00000E+00  0.00000E+00  0.00000E+00
 ***** DATA CARD NO. 14   LD   4    14     5     5  5.00000E+01  0.00000E+00  0.00000E+00  0.00000E+00  0.00000E+00  0.00000E+00
 ***** DATA CARD NO. 15   LD   4    15     5     5  5.00000E+01  0.00000E+00  0.00000E+00  0.00000E+00  0.00000E+00  0.00000E+00
 ***** DATA CARD NO. 16   LD   4    16     5     5  5.00000E+01  0.00000E+00  0.00000E+00  0.00000E+00  0.00000E+00  0.00000E+00
 ***** DATA CARD NO. 17   LD   4    17     5     5  5.00000E+01  0.00000E+00  0.00000E+00  0.00000E+00  0.00000E+00  0.00000E+00
 ***** DATA CARD NO. 18   LD   4    18     5     5  5.00000E+01  0.00000E+00  0.00000E+00  0.00000E+00  0.00000E+00  0.00000E+00
 ***** DATA CARD NO. 19   LD   4    19     5     5  5.00000E+01  0.00000E+00  0.00000E+00  0.00000E+00  0.00000E+00  0.00000E+00
 ***** DATA CARD NO. 20   LD   4    20     5     5  5.00000E+01  0.00000E+00  0.00000E+00  0.00000E+00  0.00000E+00  0.00000E+00
 ***** DATA CARD NO. 21   GN  -1     0     0     0  0.00000E+00  0.00000E+00  0.00000E+00  0.00000E+00  0.00000E+00  0.00000E+00
 ***** DATA CARD NO. 22   EK   0     0     0     0  0.00000E+00  0.00000E+00  0.00000E+00  0.00000E+00  0.00000E+00  0.00000E+00
 ***** DATA CARD NO. 23   EX   0    12     5     0  1.00000E+00  0.00000E+00  0.00000E+00  0.00000E+00  0.00000E+00  0.00000E+00
 ***** DATA CARD NO. 24   FR   0     0     0     0  4.30000E+02  0.00000E+00  0.00000E+00  0.00000E+00  0.00000E+00  0.00000E+00
 ***** DATA CARD NO. 25   RP   0    37    73  1003 -1.80000E+02  0.00000E+00  5.00000E+00  5.00000E+00  0.00000E+00  0.00000E+00




                                 - - - - - - FREQUENCY - - - - - -

                                    FREQUENCY= 4.3000E+02 MHZ
                                    WAVELENGTH= 6.9721E-01 METERS




                    APPROXIMATE INTEGRATION EMPLOYED FOR SEGMENTS MORE THAN   1.000 WAVELENGTHS APART

                    THE EXTENDED THIN WIRE KERNEL WILL BE USED



                               - - - STRUCTURE IMPEDANCE LOADING - - -


       LOCATION          RESISTANCE   INDUCTANCE  CAPACITANCE       IMPEDANCE (OHMS)     CONDUCTIVITY    TYPE
    ITAG FROM THRU          OHMS        HENRYS       FARADS        REAL      IMAGINARY    MHOS/METER

       1    5    5                                             5.0000E+01                             FIXED IMPEDANCE 

       2    5    5                                             5.0000E+01                             FIXED IMPEDANCE 

       3    5    5                                             5.0000E+01                             FIXED IMPEDANCE 

       4    5    5                                             5.0000E+01                             FIXED IMPEDANCE 

       5    5    5                                             5.0000E+01                             FIXED IMPEDANCE 

       6    5    5                                             5.0000E+01                             FIXED IMPEDANCE 

       7    5    5                                             5.0000E+01                             FIXED IMPEDANCE 

       8    5    5                                             5.0000E+01                             FIXED IMPEDANCE 

       9    5    5                                             5.0000E+01                             FIXED IMPEDANCE 

      10    5    5                                             5.0000E+01                             FIXED IMPEDANCE 

      11    5    5                                             5.0000E+01                             FIXED IMPEDANCE 

      12    5    5                                             5.0000E+01                             FIXED IMPEDANCE 

      13    5    5                                             5.0000E+01                             FIXED IMPEDANCE 

      14    5    5                                             5.0000E+01                             FIXED IMPEDANCE 

      15    5    5                                             5.0000E+01                             FIXED IMPEDANCE 

      16    5    5                                             5.0000E+01                             FIXED IMPEDANCE 

      17    5    5                                             5.0000E+01                             FIXED IMPEDANCE 

      18    5    5                                             5.0000E+01                             FIXED IMPEDANCE 

      19    5    5                                             5.0000E+01                             FIXED IMPEDANCE 

      20    5    5                                             5.0000E+01                             FIXED IMPEDANCE 



                                  - - - ANTENNA ENVIRONMENT - - -

                                            FREE SPACE



                                - - - MATRIX TIMING - - -

                        FILL=    0.031 SEC.,  FACTOR=    0.016 SEC.



                                          - - - ANTENNA INPUT PARAMETERS - - -

   TAG   SEG.    VOLTAGE (VOLTS)         CURRENT (AMPS)         IMPEDANCE (OHMS)        ADMITTANCE (MHOS)      POWER
   NO.   NO.    REAL        IMAG.       REAL        IMAG.       REAL        IMAG.       REAL        IMAG.     (WATTS)
    12   104 1.00000E+00 0.00000E+00 7.30480E-03-1.43846E-03 1.31786E+02 2.59513E+01 7.30480E-03-1.43846E-03 3.65240E-03



                             - - - CURRENTS AND LOCATION - - -

                                 DISTANCES IN WAVELENGTHS


  SEG.  TAG    COORD. OF SEG. CENTER     SEG.            - - - CURRENT (AMPS) - - -
  NO.   NO.     X        Y        Z      LENGTH     REAL        IMAG.       MAG.        PHASE
     1    1   0.0000   0.0000  -0.2222  0.05555   1.1672E-05 -1.1604E-06  1.1729E-05   -5.678
     2    1   0.0000   0.0000  -0.1667  0.05555   3.1438E-05 -3.5562E-06  3.1639E-05   -6.454
     3    1   0.0000   0.0000  -0.1111  0.05555   4.6781E-05 -5.9652E-06  4.7160E-05   -7.267
     4    1   0.0000   0.0000  -0.0556  0.05555   5.6567E-05 -8.1661E-06  5.7153E-05   -8.215
     5    1   0.0000   0.0000   0.0000  0.05555   5.9839E-05 -9.6129E-06  6.0607E-05   -9.126
     6    1   0.0000   0.0000   0.0556  0.05555   5.6567E-05 -8.1661E-06  5.7153E-05   -8.215
     7    1   0.0000   0.0000   0.1111  0.05555   4.6781E-05 -5.9652E-06  4.7160E-05   -7.267
     8    1   0.0000   0.0000   0.1667  0.05555   3.1438E-05 -3.5562E-06  3.1639E-05   -6.454
     9    1   0.0000   0.0000   0.2222  0.05555   1.1672E-05 -1.1604E-06  1.1729E-05   -5.678
    10    2   0.0000   0.5000  -0.2222  0.05555  -1.1107E-05  2.7064E-06  1.1432E-05  166.306
    11    2   0.0000   0.5000  -0.1667  0.05555  -2.9900E-05  7.7064E-06  3.0877E-05  165.547
    12    2   0.0000   0.5000  -0.1111  0.05555  -4.4441E-05  1.2119E-05  4.6064E-05  164.747
    13    2   0.0000   0.5000  -0.0556  0.05555  -5.3637E-05  1.5576E-05  5.5853E-05  163.807
    14    2   0.0000   0.5000   0.0000  0.05555  -5.6617E-05  1.7420E-05  5.9237E-05  162.898
    15    2   0.0000   0.5000   0.0556  0.05555  -5.3637E-05  1.5576E-05  5.5853E-05  163.807
    16    2   0.0000   0.5000   0.1111  0.05555  -4.4441E-05  1.2119E-05  4.6064E-05  164.747
    17    2   0.0000   0.5000   0.1667  0.05555  -2.9900E-05  7.7064E-06  3.0877E-05  165.547
    18    2   0.0000   0.5000   0.2222  0.05555  -1.1107E-05  2.7064E-06  1.1432E-05  166.306
    19    3   0.0000   1.0000  -0.2222  0.05555   1.1949E-05 -3.2787E-06  1.2390E-05  -15.344
    20    3   0.0000   1.0000  -0.1667  0.05555   3.2156E-05 -9.2784E-06  3.3467E-05  -16.095
    21    3   0.0000   1.0000  -0.1111  0.05555   4.7777E-05 -1.4507E-05  4.9931E-05  -16.890
    22    3   0.0000   1.0000  -0.0556  0.05555   5.7636E-05 -1.8535E-05  6.0543E-05  -17.827
    23    3   0.0000   1.0000   0.0000  0.05555   6.0809E-05 -2.0624E-05  6.4211E-05  -18.735
    24    3   0.0000   1.0000   0.0556  0.05555   5.7636E-05 -1.8535E-05  6.0543E-05  -17.827
    25    3   0.0000   1.0000   0.1111  0.05555   4.7777E-05 -1.4507E-05  4.9931E-05  -16.890
    26    3   0.0000   1.0000   0.1667  0.05555   3.2156E-05 -9.2784E-06  3.3467E-05  -16.095
    27    3   0.0000   1.0000   0.2222  0.05555   1.1949E-05 -3.2787E-06  1.2390E-05  -15.344
    28    4   0.0000   1.5000  -0.2222  0.05555  -1.3569E-05  3.6710E-06  1.4057E-05  164.862
    29    4   0.0000   1.5000  -0.1667  0.05555  -3.6515E-05  1.0395E-05  3.7966E-05  164.109
    30    4   0.0000   1.5000  -0.1111  0.05555  -5.4254E-05  1.6263E-05  5.6639E-05  163.313
    31    4   0.0000   1.5000  -0.0556  0.05555  -6.5451E-05  2.0793E-05  6.8674E-05  162.376
    32    4   0.0000   1.5000   0.0000  0.05555  -6.9058E-05  2.3150E-05  7.2835E-05  161.468
    33    4   0.0000   1.5000   0.0556  0.05555  -6.5451E-05  2.0793E-05  6.8674E-05  162.376
    34    4   0.0000   1.5000   0.1111  0.05555  -5.4254E-05  1.6263E-05  5.6639E-05  163.313
    35    4   0.0000   1.5000   0.1667  0.05555  -3.6515E-05  1.0395E-05  3.7966E-05  164.109
    36    4   0.0000   1.5000   0.2222  0.05555  -1.3569E-05  3.6710E-06  1.4057E-05  164.862
    37    5   0.0000   2.0000  -0.2222  0.05555   1.6062E-05 -3.9884E-06  1.6550E-05  -13.945
    38    5   0.0000   2.0000  -0.1667  0.05555   4.3229E-05 -1.1343E-05  4.4692E-05  -14.703
    39    5   0.0000   2.0000  -0.1111  0.05555   6.4242E-05 -1.7819E-05  6.6667E-05  -15.502
    40    5   0.0000   2.0000  -0.0556  0.05555   7.7524E-05 -2.2878E-05  8.0829E-05  -16.442
    41    5   0.0000   2.0000   0.0000  0.05555   8.1824E-05 -2.5565E-05  8.5725E-05  -17.351
    42    5   0.0000   2.0000   0.0556  0.05555   7.7524E-05 -2.2878E-05  8.0829E-05  -16.442
    43    5   0.0000   2.0000   0.1111  0.05555   6.4242E-05 -1.7819E-05  6.6667E-05  -15.502
    44    5   0.0000   2.0000   0.1667  0.05555   4.3229E-05 -1.1343E-05  4.4692E-05  -14.703
    45    5   0.0000   2.0000   0.2222  0.05555   1.6062E-05 -3.9884E-06  1.6550E-05  -13.945
    46    6   0.0000   2.4999  -0.2222  0.05555  -1.9826E-05  4.1975E-06  2.0266E-05  168.046
    47    6   0.0000   2.4999  -0.1667  0.05555  -5.3371E-05  1.2047E-05  5.4714E-05  167.280
    48    6   0.0000   2.4999  -0.1111  0.05555  -7.9341E-05  1.9085E-05  8.1604E-05  166.475
    49    6   0.0000   2.4999  -0.0556  0.05555  -9.5793E-05  2.4716E-05  9.8930E-05  165.532
    50    6   0.0000   2.4999   0.0000  0.05555  -1.0116E-04  2.7823E-05  1.0492E-04  164.622
    51    6   0.0000   2.4999   0.0556  0.05555  -9.5793E-05  2.4716E-05  9.8930E-05  165.532
    52    6   0.0000   2.4999   0.1111  0.05555  -7.9341E-05  1.9085E-05  8.1604E-05  166.475
    53    6   0.0000   2.4999   0.1667  0.05555  -5.3371E-05  1.2047E-05  5.4714E-05  167.280
    54    6   0.0000   2.4999   0.2222  0.05555  -1.9826E-05  4.1975E-06  2.0266E-05  168.046
    55    7   0.0000   2.9999  -0.2222  0.05555   2.5719E-05 -4.1163E-06  2.6046E-05   -9.093
    56    7   0.0000   2.9999  -0.1667  0.05555   6.9256E-05 -1.2049E-05  7.0296E-05   -9.870
    57    7   0.0000   2.9999  -0.1111  0.05555   1.0301E-04 -1.9429E-05  1.0482E-04  -10.682
    58    7   0.0000   2.9999  -0.0556  0.05555   1.2445E-04 -2.5612E-05  1.2706E-04  -11.629
    59    7   0.0000   2.9999   0.0000  0.05555   1.3154E-04 -2.9258E-05  1.3475E-04  -12.540
    60    7   0.0000   2.9999   0.0556  0.05555   1.2445E-04 -2.5612E-05  1.2706E-04  -11.629
    61    7   0.0000   2.9999   0.1111  0.05555   1.0301E-04 -1.9429E-05  1.0482E-04  -10.682
    62    7   0.0000   2.9999   0.1667  0.05555   6.9256E-05 -1.2049E-05  7.0296E-05   -9.870
    63    7   0.0000   2.9999   0.2222  0.05555   2.5719E-05 -4.1163E-06  2.6046E-05   -9.093
    64    8   0.0000   3.4999  -0.2222  0.05555  -3.5644E-05  3.1619E-06  3.5784E-05  174.931
    65    8   0.0000   3.4999  -0.1667  0.05555  -9.6023E-05  9.8526E-06  9.6528E-05  174.142
    66    8   0.0000   3.4999  -0.1111  0.05555  -1.4291E-04  1.6737E-05  1.4389E-04  173.320
    67    8   0.0000   3.4999  -0.0556  0.05555  -1.7284E-04  2.3161E-05  1.7439E-04  172.368
    68    8   0.0000   3.4999   0.0000  0.05555  -1.8288E-04  2.7478E-05  1.8493E-04  171.455
    69    8   0.0000   3.4999   0.0556  0.05555  -1.7284E-04  2.3161E-05  1.7439E-04  172.368
    70    8   0.0000   3.4999   0.1111  0.05555  -1.4291E-04  1.6737E-05  1.4389E-04  173.320
    71    8   0.0000   3.4999   0.1667  0.05555  -9.6023E-05  9.8526E-06  9.6528E-05  174.142
    72    8   0.0000   3.4999   0.2222  0.05555  -3.5644E-05  3.1619E-06  3.5784E-05  174.931
    73    9   0.0000   3.9999  -0.2222  0.05555   5.4461E-05  7.4917E-07  5.4466E-05    0.788
    74    9   0.0000   3.9999  -0.1667  0.05555   1.4680E-04 -3.7161E-08  1.4680E-04   -0.015
    75    9   0.0000   3.9999  -0.1111  0.05555   2.1869E-04 -3.2290E-06  2.1871E-04   -0.846
    76    9   0.0000   3.9999  -0.0556  0.05555   2.6486E-04 -8.3444E-06  2.6499E-04   -1.805
    77    9   0.0000   3.9999   0.0000  0.05555   2.8066E-04 -1.3333E-05  2.8098E-04   -2.720
    78    9   0.0000   3.9999   0.0556  0.05555   2.6486E-04 -8.3444E-06  2.6499E-04   -1.805
    79    9   0.0000   3.9999   0.1111  0.05555   2.1869E-04 -3.2290E-06  2.1871E-04   -0.846
    80    9   0.0000   3.9999   0.1667  0.05555   1.4680E-04 -3.7161E-08  1.4680E-04   -0.015
    81    9   0.0000   3.9999   0.2222  0.05555   5.4461E-05  7.4917E-07  5.4466E-05    0.788
    82   10   0.0000   4.4999  -0.2222  0.05555  -9.8256E-05 -1.7422E-05  9.9789E-05 -169.945
    83   10   0.0000   4.4999  -0.1667  0.05555  -2.6502E-04 -4.3173E-05  2.6851E-04 -170.747
    84   10   0.0000   4.4999  -0.1111  0.05555  -3.9529E-04 -5.8500E-05  3.9960E-04 -171.582
    85   10   0.0000   4.4999  -0.0556  0.05555  -4.7976E-04 -6.2790E-05  4.8385E-04 -172.544
    86   10   0.0000   4.4999   0.0000  0.05555  -5.0961E-04 -5.8419E-05  5.1294E-04 -173.460
    87   10   0.0000   4.4999   0.0556  0.05555  -4.7976E-04 -6.2790E-05  4.8385E-04 -172.544
    88   10   0.0000   4.4999   0.1111  0.05555  -3.9529E-04 -5.8500E-05  3.9960E-04 -171.582
    89   10   0.0000   4.4999   0.1667  0.05555  -2.6502E-04 -4.3173E-05  2.6851E-04 -170.747
    90   10   0.0000   4.4999   0.2222  0.05555  -9.8256E-05 -1.7422E-05  9.9789E-05 -169.945
    91   11   0.0000   4.9999  -0.2222  0.05555   2.6461E-04  1.2310E-04  2.9184E-04   24.948
    92   11   0.0000   4.9999  -0.1667  0.05555   7.1316E-04  3.2330E-04  7.8302E-04   24.386
    93   11   0.0000   4.9999  -0.1111  0.05555   1.0646E-03  4.6768E-04  1.1628E-03   23.716
    94   11   0.0000   4.9999  -0.0556  0.05555   1.2958E-03  5.4597E-04  1.4061E-03   22.848
    95   11   0.0000   4.9999   0.0000  0.05555   1.3819E-03  5.5721E-04  1.4900E-03   21.961
    96   11   0.0000   4.9999   0.0556  0.05555   1.2958E-03  5.4597E-04  1.4061E-03   22.848
    97   11   0.0000   4.9999   0.1111  0.05555   1.0646E-03  4.6768E-04  1.1628E-03   23.716
    98   11   0.0000   4.9999   0.1667  0.05555   7.1316E-04  3.2330E-04  7.8302E-04   24.386
    99   11   0.0000   4.9999   0.2222  0.05555   2.6461E-04  1.2310E-04  2.9184E-04   24.948
   100   12   0.0000   5.4999  -0.2222  0.05555   1.4336E-03 -4.0790E-04  1.4905E-03  -15.882
   101   12   0.0000   5.4999  -0.1667  0.05555   3.8527E-03 -1.0333E-03  3.9889E-03  -15.014
   102   12   0.0000   5.4999  -0.1111  0.05555   5.7229E-03 -1.4228E-03  5.8971E-03  -13.961
   103   12   0.0000   5.4999  -0.0556  0.05555   6.9109E-03 -1.5419E-03  7.0809E-03  -12.578
   104   12   0.0000   5.4999   0.0000  0.05555   7.3048E-03 -1.4385E-03  7.4451E-03  -11.140
   105   12   0.0000   5.4999   0.0556  0.05555   6.9109E-03 -1.5419E-03  7.0809E-03  -12.578
   106   12   0.0000   5.4999   0.1111  0.05555   5.7229E-03 -1.4228E-03  5.8971E-03  -13.961
   107   12   0.0000   5.4999   0.1667  0.05555   3.8527E-03 -1.0333E-03  3.9889E-03  -15.014
   108   12   0.0000   5.4999   0.2222  0.05555   1.4336E-03 -4.0790E-04  1.4905E-03  -15.882
   109   13   0.0000   5.9998  -0.2222  0.05555   2.6471E-04  1.2311E-04  2.9194E-04   24.943
   110   13   0.0000   5.9998  -0.1667  0.05555   7.1342E-04  3.2334E-04  7.8327E-04   24.381
   111   13   0.0000   5.9998  -0.1111  0.05555   1.0650E-03  4.6774E-04  1.1632E-03   23.711
   112   13   0.0000   5.9998  -0.0556  0.05555   1.2963E-03  5.4603E-04  1.4066E-03   22.843
   113   13   0.0000   5.9998   0.0000  0.05555   1.3824E-03  5.5728E-04  1.4905E-03   21.956
   114   13   0.0000   5.9998   0.0556  0.05555   1.2963E-03  5.4603E-04  1.4066E-03   22.843
   115   13   0.0000   5.9998   0.1111  0.05555   1.0650E-03  4.6774E-04  1.1632E-03   23.711
   116   13   0.0000   5.9998   0.1667  0.05555   7.1342E-04  3.2334E-04  7.8327E-04   24.381
   117   13   0.0000   5.9998   0.2222  0.05555   2.6471E-04  1.2311E-04  2.9194E-04   24.943
   118   14   0.0000   6.4998  -0.2222  0.05555  -9.8455E-05 -1.7462E-05  9.9992E-05 -169.943
   119   14   0.0000   6.4998  -0.1667  0.05555  -2.6556E-04 -4.3275E-05  2.6906E-04 -170.745
   120   14   0.0000   6.4998  -0.1111  0.05555  -3.9610E-04 -5.8641E-05  4.0042E-04 -171.579
   121   14   0.0000   6.4998  -0.0556  0.05555  -4.8074E-04 -6.2944E-05  4.8484E-04 -172.541
   122   14   0.0000   6.4998   0.0000  0.05555  -5.1065E-04 -5.8566E-05  5.1400E-04 -173.457
   123   14   0.0000   6.4998   0.0556  0.05555  -4.8074E-04 -6.2944E-05  4.8484E-04 -172.541
   124   14   0.0000   6.4998   0.1111  0.05555  -3.9610E-04 -5.8641E-05  4.0042E-04 -171.579
   125   14   0.0000   6.4998   0.1667  0.05555  -2.6556E-04 -4.3275E-05  2.6906E-04 -170.745
   126   14   0.0000   6.4998   0.2222  0.05555  -9.8455E-05 -1.7462E-05  9.9992E-05 -169.943
   127   15   0.0000   6.9998  -0.2222  0.05555   5.4784E-05  8.1836E-07  5.4790E-05    0.856
   128   15   0.0000   6.9998  -0.1667  0.05555   1.4768E-04  1.3781E-07  1.4768E-04    0.053
   129   15   0.0000   6.9998  -0.1111  0.05555   2.2000E-04 -2.9865E-06  2.2002E-04   -0.778
   130   15   0.0000   6.9998  -0.0556  0.05555   2.6645E-04 -8.0767E-06  2.6657E-04   -1.736
   131   15   0.0000   6.9998   0.0000  0.05555   2.8235E-04 -1.3076E-05  2.8266E-04   -2.652
   132   15   0.0000   6.9998   0.0556  0.05555   2.6645E-04 -8.0767E-06  2.6657E-04   -1.736
   133   15   0.0000   6.9998   0.1111  0.05555   2.2000E-04 -2.9865E-06  2.2002E-04   -0.778
   134   15   0.0000   6.9998   0.1667  0.05555   1.4768E-04  1.3781E-07  1.4768E-04    0.053
   135   15   0.0000   6.9998   0.2222  0.05555   5.4784E-05  8.1836E-07  5.4790E-05    0.856
   136   16   0.0000   7.4998  -0.2222  0.05555  -3.6128E-05  3.0475E-06  3.6256E-05  175.178
   137   16   0.0000   7.4998  -0.1667  0.05555  -9.7334E-05  9.5617E-06  9.7803E-05  174.390
   138   16   0.0000   7.4998  -0.1111  0.05555  -1.4487E-04  1.6331E-05  1.4579E-04  173.568
   139   16   0.0000   7.4998  -0.0556  0.05555  -1.7523E-04  2.2708E-05  1.7669E-04  172.616
   140   16   0.0000   7.4998   0.0000  0.05555  -1.8541E-04  2.7039E-05  1.8737E-04  171.703
   141   16   0.0000   7.4998   0.0556  0.05555  -1.7523E-04  2.2708E-05  1.7669E-04  172.616
   142   16   0.0000   7.4998   0.1111  0.05555  -1.4487E-04  1.6331E-05  1.4579E-04  173.568
   143   16   0.0000   7.4998   0.1667  0.05555  -9.7334E-05  9.5617E-06  9.7803E-05  174.390
   144   16   0.0000   7.4998   0.2222  0.05555  -3.6128E-05  3.0475E-06  3.6256E-05  175.178
   145   17   0.0000   7.9998  -0.2222  0.05555   2.6435E-05 -3.9219E-06  2.6724E-05   -8.439
   146   17   0.0000   7.9998  -0.1667  0.05555   7.1193E-05 -1.1551E-05  7.2124E-05   -9.216
   147   17   0.0000   7.9998  -0.1111  0.05555   1.0590E-04 -1.8728E-05  1.0755E-04  -10.029
   148   17   0.0000   7.9998  -0.0556  0.05555   1.2798E-04 -2.4821E-05  1.3036E-04  -10.976
   149   17   0.0000   7.9998   0.0000  0.05555   1.3529E-04 -2.8478E-05  1.3825E-04  -11.887
   150   17   0.0000   7.9998   0.0556  0.05555   1.2798E-04 -2.4821E-05  1.3036E-04  -10.976
   151   17   0.0000   7.9998   0.1111  0.05555   1.0590E-04 -1.8728E-05  1.0755E-04  -10.029
   152   17   0.0000   7.9998   0.1667  0.05555   7.1193E-05 -1.1551E-05  7.2124E-05   -9.216
   153   17   0.0000   7.9998   0.2222  0.05555   2.6435E-05 -3.9219E-06  2.6724E-05   -8.439
   154   18   0.0000   8.4998  -0.2222  0.05555  -2.0916E-05  3.8374E-06  2.1266E-05  169.604
   155   18   0.0000   8.4998  -0.1667  0.05555  -5.6323E-05  1.1117E-05  5.7409E-05  168.835
   156   18   0.0000   8.4998  -0.1111  0.05555  -8.3758E-05  1.7762E-05  8.5621E-05  168.027
   157   18   0.0000   8.4998  -0.0556  0.05555  -1.0117E-04  2.3203E-05  1.0380E-04  167.083
   158   18   0.0000   8.4998   0.0000  0.05555  -1.0689E-04  2.6309E-05  1.1008E-04  166.173
   159   18   0.0000   8.4998   0.0556  0.05555  -1.0117E-04  2.3203E-05  1.0380E-04  167.083
   160   18   0.0000   8.4998   0.1111  0.05555  -8.3758E-05  1.7762E-05  8.5621E-05  168.027
   161   18   0.0000   8.4998   0.1667  0.05555  -5.6323E-05  1.1117E-05  5.7409E-05  168.835
   162   18   0.0000   8.4998   0.2222  0.05555  -2.0916E-05  3.8374E-06  2.1266E-05  169.604
   163   19   0.0000   8.9998  -0.2222  0.05555   1.7880E-05 -3.1916E-06  1.8162E-05  -10.121
   164   19   0.0000   8.9998  -0.1667  0.05555   4.8152E-05 -9.2655E-06  4.9035E-05  -10.892
   165   19   0.0000   8.9998  -0.1111  0.05555   7.1616E-05 -1.4831E-05  7.3135E-05  -11.700
   166   19   0.0000   8.9998  -0.0556  0.05555   8.6514E-05 -1.9409E-05  8.8664E-05  -12.645
   167   19   0.0000   8.9998   0.0000  0.05555   9.1413E-05 -2.2040E-05  9.4032E-05  -13.556
   168   19   0.0000   8.9998   0.0556  0.05555   8.6514E-05 -1.9409E-05  8.8664E-05  -12.645
   169   19   0.0000   8.9998   0.1111  0.05555   7.1616E-05 -1.4831E-05  7.3135E-05  -11.700
   170   19   0.0000   8.9998   0.1667  0.05555   4.8152E-05 -9.2655E-06  4.9035E-05  -10.892
   171   19   0.0000   8.9998   0.2222  0.05555   1.7880E-05 -3.1916E-06  1.8162E-05  -10.121
   172   20   0.0000   9.4998  -0.2222  0.05555  -1.7507E-05  1.0044E-06  1.7536E-05  176.716
   173   20   0.0000   9.4998  -0.1667  0.05555  -4.7172E-05  3.3518E-06  4.7291E-05  175.936
   174   20   0.0000   9.4998  -0.1111  0.05555  -7.0225E-05  5.9966E-06  7.0480E-05  175.119
   175   20   0.0000   9.4998  -0.0556  0.05555  -8.4966E-05  8.6764E-06  8.5408E-05  174.169
   176   20   0.0000   9.4998   0.0000  0.05555  -8.9940E-05  1.0634E-05  9.0566E-05  173.257
   177   20   0.0000   9.4998   0.0556  0.05555  -8.4966E-05  8.6764E-06  8.5408E-05  174.169
   178   20   0.0000   9.4998   0.1111  0.05555  -7.0225E-05  5.9966E-06  7.0480E-05  175.119
   179   20   0.0000   9.4998   0.1667  0.05555  -4.7172E-05  3.3518E-06  4.7291E-05  175.936
   180   20   0.0000   9.4998   0.2222  0.05555  -1.7507E-05  1.0044E-06  1.7536E-05  176.716



                                        - - - POWER BUDGET - - -

                                           INPUT POWER   = 3.6524E-03 WATTS
                                           RADIATED POWER= 2.1342E-03 WATTS
                                           STRUCTURE LOSS= 1.5182E-03 WATTS
                                           NETWORK LOSS  = 0.0000E+00 WATTS
                                           EFFICIENCY    =  58.43 PERCENT



                                                - - - RADIATION PATTERNS - - -

  - - ANGLES - -           - POWER GAINS -       - - - POLARIZATION - - -    - - - E(THETA) - - -    - - - E(PHI) - - -
  THETA     PHI        VERT.   HOR.    TOTAL      AXIAL     TILT   SENSE     MAGNITUDE    PHASE      MAGNITUDE    PHASE 
 DEGREES  DEGREES       DB      DB      DB        RATIO     DEG.              VOLTS/M    DEGREES      VOLTS/M    DEGREES
 -180.00     0.00    -999.99 -999.99 -999.99    0.00000     0.00            4.58188E-12    86.03    0.00000E+00     0.00
 -175.00     0.00     -21.54 -999.99  -21.54    0.00000     0.00  LINEAR    3.92016E-02   -93.97    0.00000E+00     0.00
 -170.00     0.00     -15.50 -999.99  -15.50    0.00000     0.00  LINEAR    7.85618E-02   -93.98    0.00000E+00     0.00
 -165.00     0.00     -11.95 -999.99  -11.95    0.00000     0.00  LINEAR    1.18213E-01   -93.99    0.00000E+00     0.00
 -160.00     0.00      -9.42 -999.99   -9.42    0.00000     0.00  LINEAR    1.58236E-01   -94.00    0.00000E+00     0.00
 -155.00     0.00      -7.44 -999.99   -7.44    0.00000     0.00  LINEAR    1.98635E-01   -94.02    0.00000E+00     0.00
 -150.00     0.00      -5.82 -999.99   -5.82    0.00000     0.00  LINEAR    2.39320E-01   -94.04    0.00000E+00     0.00
 -145.00     0.00      -4.46 -999.99   -4.46    0.00000     0.00  LINEAR    2.80088E-01   -94.06    0.00000E+00     0.00
 -140.00     0.00      -3.28 -999.99   -3.28    0.00000     0.00  LINEAR    3.20612E-01   -94.09    0.00000E+00     0.00
 -135.00     0.00      -2.27 -999.99   -2.27    0.00000     0.00  LINEAR    3.60444E-01   -94.11    0.00000E+00     0.00
 -130.00     0.00      -1.38 -999.99   -1.38    0.00000     0.00  LINEAR    3.99013E-01   -94.13    0.00000E+00     0.00
 -125.00     0.00      -0.62 -999.99   -0.62    0.00000     0.00  LINEAR    4.35651E-01   -94.15    0.00000E+00     0.00
 -120.00     0.00       0.03 -999.99    0.03    0.00000     0.00  LINEAR    4.69613E-01   -94.17    0.00000E+00     0.00
 -115.00     0.00       0.58 -999.99    0.58    0.00000     0.00  LINEAR    5.00115E-01   -94.19    0.00000E+00     0.00
 -110.00     0.00       1.02 -999.99    1.02    0.00000     0.00  LINEAR    5.26377E-01   -94.21    0.00000E+00     0.00
 -105.00     0.00       1.37 -999.99    1.37    0.00000     0.00  LINEAR    5.47674E-01   -94.22    0.00000E+00     0.00
 -100.00     0.00       1.61 -999.99    1.61    0.00000     0.00  LINEAR    5.63377E-01   -94.23    0.00000E+00     0.00
  -95.00     0.00       1.76 -999.99    1.76    0.00000     0.00  LINEAR    5.73002E-01   -94.23    0.00000E+00     0.00
  -90.00     0.00       1.81 -999.99    1.81    0.00000     0.00  LINEAR    5.76246E-01   -94.24    0.00000E+00     0.00
  -85.00     0.00       1.76 -999.99    1.76    0.00000     0.00  LINEAR    5.73002E-01   -94.23    0.00000E+00     0.00
  -80.00     0.00       1.61 -999.99    1.61    0.00000     0.00  LINEAR    5.63377E-01   -94.23    0.00000E+00     0.00
  -75.00     0.00       1.37 -999.99    1.37    0.00000     0.00  LINEAR    5.47674E-01   -94.22    0.00000E+00     0.00
  -70.00     0.00       1.02 -999.99    1.02    0.00000     0.00  LINEAR    5.26377E-01   -94.21    0.00000E+00     0.00
  -65.00     0.00       0.58 -999.99    0.58    0.00000     0.00  LINEAR    5.00115E-01   -94.19    0.00000E+00     0.00
  -60.00     0.00       0.03 -999.99    0.03    0.00000     0.00  LINEAR    4.69613E-01   -94.17    0.00000E+00     0.00
  -55.00     0.00      -0.62 -999.99   -0.62    0.00000     0.00  LINEAR    4.35651E-01   -94.15    0.00000E+00     0.00
  -50.00     0.00      -1.38 -999.99   -1.38    0.00000     0.00  LINEAR    3.99013E-01   -94.13    0.00000E+00     0.00
  -45.00     0.00      -2.27 -999.99   -2.27    0.00000     0.00  LINEAR    3.60444E-01   -94.11    0.00000E+00     0.00
  -40.00     0.00      -3.28 -999.99   -3.28    0.00000     0.00  LINEAR    3.20612E-01   -94.09    0.00000E+00     0.00
  -35.00     0.00      -4.46 -999.99   -4.46    0.00000     0.00  LINEAR    2.80088E-01   -94.06    0.00000E+00     0.00
  -30.00     0.00      -5.82 -999.99   -5.82    0.00000     0.00  LINEAR    2.39320E-01   -94.04    0.00000E+00     0.00
  -25.00     0.00      -7.44 -999.99   -7.44    0.00000     0.00  LINEAR    1.98635E-01   -94.02    0.00000E+00     0.00
  -20.00     0.00      -9.42 -999.99   -9.42    0.00000     0.00  LINEAR    1.58236E-01   -94.00    0.00000E+00     0.00
  -15.00     0.00     -11.95 -999.99  -11.95    0.00000     0.00  LINEAR    1.18213E-01   -93.99    0.00000E+00     0.00
  -10.00     0.00     -15.50 -999.99  -15.50    0.00000     0.00  LINEAR    7.85618E-02   -93.98    0.00000E+00     0.00
   -5.00     0.00     -21.54 -999.99  -21.54    0.00000     0.00  LINEAR    3.92016E-02   -93.97    0.00000E+00     0.00
    0.00     0.00    -999.99 -999.99 -999.99    0.00000     0.00            0.00000E+00     0.00    0.00000E+00     0.00
 -180.00     5.00    -999.99 -999.99 -999.99    0.00000     0.00            4.58188E-12    86.03    0.00000E+00     0.00
 -175.00     5.00     -21.54 -999.99  -21.54    0.00000     0.00  LINEAR    3.91962E-02  -108.90    0.00000E+00     0.00
 -170.00     5.00     -15.50 -999.99  -15.50    0.00000     0.00  LINEAR    7.85328E-02  -123.73    0.00000E+00     0.00
 -165.00     5.00     -11.96 -999.99  -11.96    0.00000     0.00  LINEAR    1.18133E-01  -138.36    0.00000E+00     0.00
 -160.00     5.00      -9.43 -999.99   -9.43    0.00000     0.00  LINEAR    1.58072E-01  -152.67    0.00000E+00     0.00
 -155.00     5.00      -7.46 -999.99   -7.46    0.00000     0.00  LINEAR    1.98356E-01  -166.55    0.00000E+00     0.00
 -150.00     5.00      -5.84 -999.99   -5.84    0.00000     0.00  LINEAR    2.38899E-01  -179.91    0.00000E+00     0.00
 -145.00     5.00      -4.48 -999.99   -4.48    0.00000     0.00  LINEAR    2.79507E-01   167.37    0.00000E+00     0.00
 -140.00     5.00      -3.30 -999.99   -3.30    0.00000     0.00  LINEAR    3.19865E-01   155.39    0.00000E+00     0.00
 -135.00     5.00      -2.29 -999.99   -2.29    0.00000     0.00  LINEAR    3.59534E-01   144.23    0.00000E+00     0.00
 -130.00     5.00      -1.41 -999.99   -1.41    0.00000     0.00  LINEAR    3.97956E-01   133.99    0.00000E+00     0.00
 -125.00     5.00      -0.65 -999.99   -0.65    0.00000     0.00  LINEAR    4.34466E-01   124.76    0.00000E+00     0.00
 -120.00     5.00       0.01 -999.99    0.01    0.00000     0.00  LINEAR    4.68323E-01   116.60    0.00000E+00     0.00
 -115.00     5.00       0.55 -999.99    0.55    0.00000     0.00  LINEAR    4.98743E-01   109.58    0.00000E+00     0.00
 -110.00     5.00       1.00 -999.99    1.00    0.00000     0.00  LINEAR    5.24944E-01   103.77    0.00000E+00     0.00
 -105.00     5.00       1.34 -999.99    1.34    0.00000     0.00  LINEAR    5.46197E-01    99.19    0.00000E+00     0.00
 -100.00     5.00       1.59 -999.99    1.59    0.00000     0.00  LINEAR    5.61872E-01    95.90    0.00000E+00     0.00
  -95.00     5.00       1.74 -999.99    1.74    0.00000     0.00  LINEAR    5.71482E-01    93.91    0.00000E+00     0.00
  -90.00     5.00       1.78 -999.99    1.78    0.00000     0.00  LINEAR    5.74720E-01    93.25    0.00000E+00     0.00
  -85.00     5.00       1.74 -999.99    1.74    0.00000     0.00  LINEAR    5.71482E-01    93.91    0.00000E+00     0.00
  -80.00     5.00       1.59 -999.99    1.59    0.00000     0.00  LINEAR    5.61872E-01    95.90    0.00000E+00     0.00
  -75.00     5.00       1.34 -999.99    1.34    0.00000     0.00  LINEAR    5.46197E-01    99.19    0.00000E+00     0.00
  -70.00     5.00       1.00 -999.99    1.00    0.00000     0.00  LINEAR    5.24944E-01   103.77    0.00000E+00     0.00
  -65.00     5.00       0.55 -999.99    0.55    0.00000     0.00  LINEAR    4.98743E-01   109.58    0.00000E+00     0.00
  -60.00     5.00       0.01 -999.99    0.01    0.00000     0.00  LINEAR    4.68323E-01   116.60    0.00000E+00     0.00
  -55.00     5.00      -0.65 -999.99   -0.65    0.00000     0.00  LINEAR    4.34466E-01   124.76    0.00000E+00     0.00
  -50.00     5.00      -1.41 -999.99   -1.41    0.00000     0.00  LINEAR    3.97956E-01   133.99    0.00000E+00     0.00
  -45.00     5.00      -2.29 -999.99   -2.29    0.00000     0.00  LINEAR    3.59534E-01   144.23    0.00000E+00     0.00
  -40.00     5.00      -3.30 -999.99   -3.30    0.00000     0.00  LINEAR    3.19865E-01   155.39    0.00000E+00     0.00
  -35.00     5.00      -4.48 -999.99   -4.48    0.00000     0.00  LINEAR    2.79507E-01   167.37    0.00000E+00     0.00
  -30.00     5.00      -5.84 -999.99   -5.84    0.00000     0.00  LINEAR    2.38899E-01  -179.91    0.00000E+00     0.00
  -25.00     5.00      -7.46 -999.99   -7.46    0.00000     0.00  LINEAR    1.98356E-01  -166.55    0.00000E+00     0.00
  -20.00     5.00      -9.43 -999.99   -9.43    0.00000     0.00  LINEAR    1.58072E-01  -152.67    0.00000E+00     0.00
  -15.00     5.00     -11.96 -999.99  -11.96    0.00000     0.00  LINEAR    1.18133E-01  -138.36    0.00000E+00     0.00
  -10.00     5.00     -15.50 -999.99  -15.50    0.00000     0.00  LINEAR    7.85328E-02  -123.73    0.00000E+00     0.00
   -5.00     5.00     -21.54 -999.99  -21.54    0.00000     0.00  LINEAR    3.91962E-02  -108.90    0.00000E+00     0.00
    0.00     5.00    -999.99 -999.99 -999.99    0.00000     0.00            0.00000E+00     0.00    0.00000E+00     0.00
 -180.00    10.00    -999.99 -999.99 -999.99    0.00000     0.00            4.58188E-12    86.03    0.00000E+00     0.00
 -175.00    10.00     -21.54 -999.99  -21.54    0.00000     0.00  LINEAR    3.91871E-02  -123.73    0.00000E+00     0.00
 -170.00    10.00     -15.51 -999.99  -15.51    0.00000     0.00  LINEAR    7.84796E-02  -153.32    0.00000E+00     0.00
 -165.00    10.00     -11.97 -999.99  -11.97    0.00000     0.00  LINEAR    1.17998E-01   177.44    0.00000E+00     0.00
 -160.00    10.00      -9.44 -999.99   -9.44    0.00000     0.00  LINEAR    1.57852E-01   148.78    0.00000E+00     0.00
 -155.00    10.00      -7.47 -999.99   -7.47    0.00000     0.00  LINEAR    1.98096E-01   120.92    0.00000E+00     0.00
 -150.00    10.00      -5.85 -999.99   -5.85    0.00000     0.00  LINEAR    2.38688E-01    94.11    0.00000E+00     0.00
 -145.00    10.00      -4.48 -999.99   -4.48    0.00000     0.00  LINEAR    2.79434E-01    68.57    0.00000E+00     0.00
 -140.00    10.00      -3.30 -999.99   -3.30    0.00000     0.00  LINEAR    3.19971E-01    44.54    0.00000E+00     0.00
 -135.00    10.00      -2.28 -999.99   -2.28    0.00000     0.00  LINEAR    3.59774E-01    22.22    0.00000E+00     0.00
 -130.00    10.00      -1.40 -999.99   -1.40    0.00000     0.00  LINEAR    3.98194E-01     1.79    0.00000E+00     0.00
 -125.00    10.00      -0.64 -999.99   -0.64    0.00000     0.00  LINEAR    4.34502E-01   -16.59    0.00000E+00     0.00
 -120.00    10.00       0.00 -999.99    0.00    0.00000     0.00  LINEAR    4.67943E-01   -32.80    0.00000E+00     0.00
 -115.00    10.00       0.54 -999.99    0.54    0.00000     0.00  LINEAR    4.97771E-01   -46.72    0.00000E+00     0.00
 -110.00    10.00       0.97 -999.99    0.97    0.00000     0.00  LINEAR    5.23284E-01   -58.24    0.00000E+00     0.00
 -105.00    10.00       1.31 -999.99    1.31    0.00000     0.00  LINEAR    5.43854E-01   -67.29    0.00000E+00     0.00
 -100.00    10.00       1.54 -999.99    1.54    0.00000     0.00  LINEAR    5.58954E-01   -73.80    0.00000E+00     0.00
  -95.00    10.00       1.69 -999.99    1.69    0.00000     0.00  LINEAR    5.68182E-01   -77.72    0.00000E+00     0.00
  -90.00    10.00       1.73 -999.99    1.73    0.00000     0.00  LINEAR    5.71286E-01   -79.04    0.00000E+00     0.00
  -85.00    10.00       1.69 -999.99    1.69    0.00000     0.00  LINEAR    5.68182E-01   -77.72    0.00000E+00     0.00
  -80.00    10.00       1.54 -999.99    1.54    0.00000     0.00  LINEAR    5.58954E-01   -73.80    0.00000E+00     0.00
  -75.00    10.00       1.31 -999.99    1.31    0.00000     0.00  LINEAR    5.43854E-01   -67.29    0.00000E+00     0.00
  -70.00    10.00       0.97 -999.99    0.97    0.00000     0.00  LINEAR    5.23284E-01   -58.24    0.00000E+00     0.00
  -65.00    10.00       0.54 -999.99    0.54    0.00000     0.00  LINEAR    4.97771E-01   -46.72    0.00000E+00     0.00
  -60.00    10.00       0.00 -999.99    0.00    0.00000     0.00  LINEAR    4.67943E-01   -32.80    0.00000E+00     0.00
  -55.00    10.00      -0.64 -999.99   -0.64    0.00000     0.00  LINEAR    4.34502E-01   -16.59    0.00000E+00     0.00
  -50.00    10.00      -1.40 -999.99   -1.40    0.00000     0.00  LINEAR    3.98194E-01     1.79    0.00000E+00     0.00
  -45.00    10.00      -2.28 -999.99   -2.28    0.00000     0.00  LINEAR    3.59774E-01    22.22    0.00000E+00     0.00
  -40.00    10.00      -3.30 -999.99   -3.30    0.00000     0.00  LINEAR    3.19971E-01    44.54    0.00000E+00     0.00
  -35.00    10.00      -4.48 -999.99   -4.48    0.00000     0.00  LINEAR    2.79434E-01    68.57    0.00000E+00     0.00
  -30.00    10.00      -5.85 -999.99   -5.85    0.00000     0.00  LINEAR    2.38688E-01    94.11    0.00000E+00     0.00
  -25.00    10.00      -7.47 -999.99   -7.47    0.00000     0.00  LINEAR    1.98096E-01   120.92    0.00000E+00     0.00
  -20.00    10.00      -9.44 -999.99   -9.44    0.00000     0.00  LINEAR    1.57852E-01   148.78    0.00000E+00     0.00
  -15.00    10.00     -11.97 -999.99  -11.97    0.00000     0.00  LINEAR    1.17998E-01   177.44    0.00000E+00     0.00
  -10.00    10.00     -15.51 -999.99  -15.51    0.00000     0.00  LINEAR    7.84796E-02  -153.32    0.00000E+00     0.00
   -5.00    10.00     -21.54 -999.99  -21.54    0.00000     0.00  LINEAR    3.91871E-02  -123.73    0.00000E+00     0.00
    0.00    10.00    -999.99 -999.99 -999.99    0.00000     0.00            0.00000E+00     0.00    0.00000E+00     0.00
 -180.00    15.00    -999.99 -999.99 -999.99    0.00000     0.00            4.58188E-12    86.03    0.00000E+00     0.00
 -175.00    15.00     -21.54 -999.99  -21.54    0.00000     0.00  LINEAR    3.91751E-02  -138.34    0.00000E+00     0.00
 -170.00    15.00     -15.52 -999.99  -15.52    0.00000     0.00  LINEAR    7.84194E-02   177.46    0.00000E+00     0.00
 -165.00    15.00     -11.97 -999.99  -11.97    0.00000     0.00  LINEAR    1.17903E-01   133.70    0.00000E+00     0.00
 -160.00    15.00      -9.44 -999.99   -9.44    0.00000     0.00  LINEAR    1.57823E-01    90.76    0.00000E+00     0.00
 -155.00    15.00      -7.46 -999.99   -7.46    0.00000     0.00  LINEAR    1.98225E-01    49.08    0.00000E+00     0.00
 -150.00    15.00      -5.84 -999.99   -5.84    0.00000     0.00  LINEAR    2.38850E-01     9.09    0.00000E+00     0.00
 -145.00    15.00      -4.49 -999.99   -4.49    0.00000     0.00  LINEAR    2.79150E-01   -28.85    0.00000E+00     0.00
 -140.00    15.00      -3.34 -999.99   -3.34    0.00000     0.00  LINEAR    3.18466E-01   -64.45    0.00000E+00     0.00
 -135.00    15.00      -2.37 -999.99   -2.37    0.00000     0.00  LINEAR    3.56220E-01   -97.47    0.00000E+00     0.00
 -130.00    15.00      -1.54 -999.99   -1.54    0.00000     0.00  LINEAR    3.91989E-01  -127.71    0.00000E+00     0.00
 -125.00    15.00      -0.83 -999.99   -0.83    0.00000     0.00  LINEAR    4.25440E-01  -154.98    0.00000E+00     0.00
 -120.00    15.00      -0.22 -999.99   -0.22    0.00000     0.00  LINEAR    4.56212E-01  -179.07    0.00000E+00     0.00
 -115.00    15.00       0.29 -999.99    0.29    0.00000     0.00  LINEAR    4.83830E-01   160.19    0.00000E+00     0.00
 -110.00    15.00       0.71 -999.99    0.71    0.00000     0.00  LINEAR    5.07700E-01   142.98    0.00000E+00     0.00
 -105.00    15.00       1.03 -999.99    1.03    0.00000     0.00  LINEAR    5.27164E-01   129.45    0.00000E+00     0.00
 -100.00    15.00       1.27 -999.99    1.27    0.00000     0.00  LINEAR    5.41592E-01   119.70    0.00000E+00     0.00
  -95.00    15.00       1.41 -999.99    1.41    0.00000     0.00  LINEAR    5.50472E-01   113.81    0.00000E+00     0.00
  -90.00    15.00       1.46 -999.99    1.46    0.00000     0.00  LINEAR    5.53470E-01   111.85    0.00000E+00     0.00
  -85.00    15.00       1.41 -999.99    1.41    0.00000     0.00  LINEAR    5.50472E-01   113.81    0.00000E+00     0.00
  -80.00    15.00       1.27 -999.99    1.27    0.00000     0.00  LINEAR    5.41592E-01   119.70    0.00000E+00     0.00
  -75.00    15.00       1.03 -999.99    1.03    0.00000     0.00  LINEAR    5.27164E-01   129.45    0.00000E+00     0.00
  -70.00    15.00       0.71 -999.99    0.71    0.00000     0.00  LINEAR    5.07700E-01   142.98    0.00000E+00     0.00
  -65.00    15.00       0.29 -999.99    0.29    0.00000     0.00  LINEAR    4.83830E-01   160.19    0.00000E+00     0.00
  -60.00    15.00      -0.22 -999.99   -0.22    0.00000     0.00  LINEAR    4.56212E-01  -179.07    0.00000E+00     0.00
  -55.00    15.00      -0.83 -999.99   -0.83    0.00000     0.00  LINEAR    4.25440E-01  -154.98    0.00000E+00     0.00
  -50.00    15.00      -1.54 -999.99   -1.54    0.00000     0.00  LINEAR    3.91989E-01  -127.71    0.00000E+00     0.00
  -45.00    15.00      -2.37 -999.99   -2.37    0.00000     0.00  LINEAR    3.56220E-01   -97.47    0.00000E+00     0.00
  -40.00    15.00      -3.34 -999.99   -3.34    0.00000     0.00  LINEAR    3.18466E-01   -64.45    0.00000E+00     0.00
  -35.00    15.00      -4.49 -999.99   -4.49    0.00000     0.00  LINEAR    2.79150E-01   -28.85    0.00000E+00     0.00
  -30.00    15.00      -5.84 -999.99   -5.84    0.00000     0.00  LINEAR    2.38850E-01     9.09    0.00000E+00     0.00
  -25.00    15.00      -7.46 -999.99   -7.46    0.00000     0.00  LINEAR    1.98225E-01    49.08    0.00000E+00     0.00
  -20.00    15.00      -9.44 -999.99   -9.44    0.00000     0.00  LINEAR    1.57823E-01    90.76    0.00000E+00     0.00
  -15.00    15.00     -11.97 -999.99  -11.97    0.00000     0.00  LINEAR    1.17903E-01   133.70    0.00000E+00     0.00
  -10.00    15.00     -15.52 -999.99  -15.52    0.00000     0.00  LINEAR    7.84194E-02   177.46    0.00000E+00     0.00
   -5.00    15.00     -21.54 -999.99  -21.54    0.00000     0.00  LINEAR    3.91751E-02  -138.34    0.00000E+00     0.00
    0.00    15.00    -999.99 -999.99 -999.99    0.00000     0.00            0.00000E+00     0.00    0.00000E+00     0.00
 -180.00    20.00    -999.99 -999.99 -999.99    0.00000     0.00            4.58188E-12    86.03    0.00000E+00     0.00
 -175.00    20.00     -21.55 -999.99  -21.55    0.00000     0.00  LINEAR    3.91613E-02  -152.63    0.00000E+00     0.00
 -170.00    20.00     -15.52 -999.99  -15.52    0.00000     0.00  LINEAR    7.83715E-02   148.81    0.00000E+00     0.00
 -165.00    20.00     -11.97 -999.99  -11.97    0.00000     0.00  LINEAR    1.17905E-01    90.77    0.00000E+00     0.00
 -160.00    20.00      -9.43 -999.99   -9.43    0.00000     0.00  LINEAR    1.57932E-01    33.93    0.00000E+00     0.00
 -155.00    20.00      -7.47 -999.99   -7.47    0.00000     0.00  LINEAR    1.98056E-01   -21.04    0.00000E+00     0.00
 -150.00    20.00      -5.89 -999.99   -5.89    0.00000     0.00  LINEAR    2.37419E-01   -73.61    0.00000E+00     0.00
 -145.00    20.00      -4.61 -999.99   -4.61    0.00000     0.00  LINEAR    2.75388E-01  -123.49    0.00000E+00     0.00
 -140.00    20.00      -3.52 -999.99   -3.52    0.00000     0.00  LINEAR    3.12017E-01  -170.45    0.00000E+00     0.00
 -135.00    20.00      -2.58 -999.99   -2.58    0.00000     0.00  LINEAR    3.47788E-01   145.80    0.00000E+00     0.00
 -130.00    20.00      -1.74 -999.99   -1.74    0.00000     0.00  LINEAR    3.82964E-01   105.61    0.00000E+00     0.00
 -125.00    20.00      -1.00 -999.99   -1.00    0.00000     0.00  LINEAR    4.17151E-01    69.33    0.00000E+00     0.00
 -120.00    20.00      -0.35 -999.99   -0.35    0.00000     0.00  LINEAR    4.49363E-01    37.29    0.00000E+00     0.00
 -115.00    20.00       0.19 -999.99    0.19    0.00000     0.00  LINEAR    4.78399E-01     9.75    0.00000E+00     0.00
 -110.00    20.00       0.63 -999.99    0.63    0.00000     0.00  LINEAR    5.03204E-01   -13.06    0.00000E+00     0.00
 -105.00    20.00       0.97 -999.99    0.97    0.00000     0.00  LINEAR    5.23029E-01   -30.98    0.00000E+00     0.00
 -100.00    20.00       1.20 -999.99    1.20    0.00000     0.00  LINEAR    5.37419E-01   -43.88    0.00000E+00     0.00
  -95.00    20.00       1.34 -999.99    1.34    0.00000     0.00  LINEAR    5.46129E-01   -51.66    0.00000E+00     0.00
  -90.00    20.00       1.39 -999.99    1.39    0.00000     0.00  LINEAR    5.49044E-01   -54.27    0.00000E+00     0.00
  -85.00    20.00       1.34 -999.99    1.34    0.00000     0.00  LINEAR    5.46129E-01   -51.66    0.00000E+00     0.00
  -80.00    20.00       1.20 -999.99    1.20    0.00000     0.00  LINEAR    5.37419E-01   -43.88    0.00000E+00     0.00
  -75.00    20.00       0.97 -999.99    0.97    0.00000     0.00  LINEAR    5.23029E-01   -30.98    0.00000E+00     0.00
  -70.00    20.00       0.63 -999.99    0.63    0.00000     0.00  LINEAR    5.03204E-01   -13.06    0.00000E+00     0.00
  -65.00    20.00       0.19 -999.99    0.19    0.00000     0.00  LINEAR    4.78399E-01     9.75    0.00000E+00     0.00
  -60.00    20.00      -0.35 -999.99   -0.35    0.00000     0.00  LINEAR    4.49363E-01    37.29    0.00000E+00     0.00
  -55.00    20.00      -1.00 -999.99   -1.00    0.00000     0.00  LINEAR    4.17151E-01    69.33    0.00000E+00     0.00
  -50.00    20.00      -1.74 -999.99   -1.74    0.00000     0.00  LINEAR    3.82964E-01   105.61    0.00000E+00     0.00
  -45.00    20.00      -2.58 -999.99   -2.58    0.00000     0.00  LINEAR    3.47788E-01   145.80    0.00000E+00     0.00
  -40.00    20.00      -3.52 -999.99   -3.52    0.00000     0.00  LINEAR    3.12017E-01  -170.45    0.00000E+00     0.00
  -35.00    20.00      -4.61 -999.99   -4.61    0.00000     0.00  LINEAR    2.75388E-01  -123.49    0.00000E+00     0.00
  -30.00    20.00      -5.89 -999.99   -5.89    0.00000     0.00  LINEAR    2.37419E-01   -73.61    0.00000E+00     0.00
  -25.00    20.00      -7.47 -999.99   -7.47    0.00000     0.00  LINEAR    1.98056E-01   -21.04    0.00000E+00     0.00
  -20.00    20.00      -9.43 -999.99   -9.43    0.00000     0.00  LINEAR    1.57932E-01    33.93    0.00000E+00     0.00
  -15.00    20.00     -11.97 -999.99  -11.97    0.00000     0.00  LINEAR    1.17905E-01    90.77    0.00000E+00     0.00
  -10.00    20.00     -15.52 -999.99  -15.52    0.00000     0.00  LINEAR    7.83715E-02   148.81    0.00000E+00     0.00
   -5.00    20.00     -21.55 -999.99  -21.55    0.00000     0.00  LINEAR    3.91613E-02  -152.63    0.00000E+00     0.00
    0.00    20.00    -999.99 -999.99 -999.99    0.00000     0.00            0.00000E+00     0.00    0.00000E+00     0.00
 -180.00    25.00    -999.99 -999.99 -999.99    0.00000     0.00            4.58188E-12    86.03    0.00000E+00     0.00
 -175.00    25.00     -21.55 -999.99  -21.55    0.00000     0.00  LINEAR    3.91470E-02  -166.50    0.00000E+00     0.00
 -170.00    25.00     -15.52 -999.99  -15.52    0.00000     0.00  LINEAR    7.83492E-02   120.97    0.00000E+00     0.00
 -165.00    25.00     -11.97 -999.99  -11.97    0.00000     0.00  LINEAR    1.17968E-01    49.11    0.00000E+00     0.00
 -160.00    25.00      -9.44 -999.99   -9.44    0.00000     0.00  LINEAR    1.57773E-01   -21.02    0.00000E+00     0.00
 -155.00    25.00      -7.53 -999.99   -7.53    0.00000     0.00  LINEAR    1.96596E-01   -88.65    0.00000E+00     0.00
 -150.00    25.00      -6.03 -999.99   -6.03    0.00000     0.00  LINEAR    2.33768E-01  -153.46    0.00000E+00     0.00
 -145.00    25.00      -4.77 -999.99   -4.77    0.00000     0.00  LINEAR    2.70195E-01   144.74    0.00000E+00     0.00
 -140.00    25.00      -3.65 -999.99   -3.65    0.00000     0.00  LINEAR    3.07237E-01    86.40    0.00000E+00     0.00
 -135.00    25.00      -2.65 -999.99   -2.65    0.00000     0.00  LINEAR    3.44856E-01    32.09    0.00000E+00     0.00
 -130.00    25.00      -1.78 -999.99   -1.78    0.00000     0.00  LINEAR    3.81327E-01   -17.67    0.00000E+00     0.00
 -125.00    25.00      -1.05 -999.99   -1.05    0.00000     0.00  LINEAR    4.14557E-01   -62.50    0.00000E+00     0.00
 -120.00    25.00      -0.47 -999.99   -0.47    0.00000     0.00  LINEAR    4.43327E-01  -102.12    0.00000E+00     0.00
 -115.00    25.00      -0.01 -999.99   -0.01    0.00000     0.00  LINEAR    4.67450E-01  -136.23    0.00000E+00     0.00
 -110.00    25.00       0.35 -999.99    0.35    0.00000     0.00  LINEAR    4.87210E-01  -164.56    0.00000E+00     0.00
 -105.00    25.00       0.62 -999.99    0.62    0.00000     0.00  LINEAR    5.02815E-01   173.14    0.00000E+00     0.00
 -100.00    25.00       0.82 -999.99    0.82    0.00000     0.00  LINEAR    5.14217E-01   157.07    0.00000E+00     0.00
  -95.00    25.00       0.94 -999.99    0.94    0.00000     0.00  LINEAR    5.21203E-01   147.38    0.00000E+00     0.00
  -90.00    25.00       0.98 -999.99    0.98    0.00000     0.00  LINEAR    5.23559E-01   144.14    0.00000E+00     0.00
  -85.00    25.00       0.94 -999.99    0.94    0.00000     0.00  LINEAR    5.21203E-01   147.38    0.00000E+00     0.00
  -80.00    25.00       0.82 -999.99    0.82    0.00000     0.00  LINEAR    5.14217E-01   157.07    0.00000E+00     0.00
  -75.00    25.00       0.62 -999.99    0.62    0.00000     0.00  LINEAR    5.02815E-01   173.14    0.00000E+00     0.00
  -70.00    25.00       0.35 -999.99    0.35    0.00000     0.00  LINEAR    4.87210E-01  -164.56    0.00000E+00     0.00
  -65.00    25.00      -0.01 -999.99   -0.01    0.00000     0.00  LINEAR    4.67450E-01  -136.23    0.00000E+00     0.00
  -60.00    25.00      -0.47 -999.99   -0.47    0.00000     0.00  LINEAR    4.43327E-01  -102.12    0.00000E+00     0.00
  -55.00    25.00      -1.05 -999.99   -1.05    0.00000     0.00  LINEAR    4.14557E-01   -62.50    0.00000E+00     0.00
  -50.00    25.00      -1.78 -999.99   -1.78    0.00000     0.00  LINEAR    3.81327E-01   -17.67    0.00000E+00     0.00
  -45.00    25.00      -2.65 -999.99   -2.65    0.00000     0.00  LINEAR    3.44856E-01    32.09    0.00000E+00     0.00
  -40.00    25.00      -3.65 -999.99   -3.65    0.00000     0.00  LINEAR    3.07237E-01    86.40    0.00000E+00     0.00
  -35.00    25.00      -4.77 -999.99   -4.77    0.00000     0.00  LINEAR    2.70195E-01   144.74    0.00000E+00     0.00
  -30.00    25.00      -6.03 -999.99   -6.03    0.00000     0.00  LINEAR    2.33768E-01  -153.46    0.00000E+00     0.00
  -25.00    25.00      -7.53 -999.99   -7.53    0.00000     0.00  LINEAR    1.96596E-01   -88.65    0.00000E+00     0.00
  -20.00    25.00      -9.44 -999.99   -9.44    0.00000     0.00  LINEAR    1.57773E-01   -21.02    0.00000E+00     0.00
  -15.00    25.00     -11.97 -999.99  -11.97    0.00000     0.00  LINEAR    1.17968E-01    49.11    0.00000E+00     0.00
  -10.00    25.00     -15.52 -999.99  -15.52    0.00000     0.00  LINEAR    7.83492E-02   120.97    0.00000E+00     0.00
   -5.00    25.00     -21.55 -999.99  -21.55    0.00000     0.00  LINEAR    3.91470E-02  -166.50    0.00000E+00     0.00
    0.00    25.00    -999.99 -999.99 -999.99    0.00000     0.00            0.00000E+00     0.00    0.00000E+00     0.00
 -180.00    30.00    -999.99 -999.99 -999.99    0.00000     0.00            4.58188E-12    86.03    0.00000E+00     0.00
 -175.00    30.00     -21.55 -999.99  -21.55    0.00000     0.00  LINEAR    3.91333E-02  -179.83    0.00000E+00     0.00
 -170.00    30.00     -15.52 -999.99  -15.52    0.00000     0.00  LINEAR    7.83545E-02    94.17    0.00000E+00     0.00
 -165.00    30.00     -11.97 -999.99  -11.97    0.00000     0.00  LINEAR    1.17979E-01     9.14    0.00000E+00     0.00
 -160.00    30.00      -9.49 -999.99   -9.49    0.00000     0.00  LINEAR    1.56975E-01   -73.57    0.00000E+00     0.00
 -155.00    30.00      -7.65 -999.99   -7.65    0.00000     0.00  LINEAR    1.94025E-01  -153.44    0.00000E+00     0.00
 -150.00    30.00      -6.16 -999.99   -6.16    0.00000     0.00  LINEAR    2.30329E-01   129.64    0.00000E+00     0.00
 -145.00    30.00      -4.84 -999.99   -4.84    0.00000     0.00  LINEAR    2.68062E-01    56.20    0.00000E+00     0.00
 -140.00    30.00      -3.68 -999.99   -3.68    0.00000     0.00  LINEAR    3.06449E-01   -12.93    0.00000E+00     0.00
 -135.00    30.00      -2.72 -999.99   -2.72    0.00000     0.00  LINEAR    3.42114E-01   -77.17    0.00000E+00     0.00
 -130.00    30.00      -1.97 -999.99   -1.97    0.00000     0.00  LINEAR    3.72908E-01  -136.16    0.00000E+00     0.00
 -125.00    30.00      -1.37 -999.99   -1.37    0.00000     0.00  LINEAR    3.99502E-01   170.48    0.00000E+00     0.00
 -120.00    30.00      -0.87 -999.99   -0.87    0.00000     0.00  LINEAR    4.23603E-01   123.29    0.00000E+00     0.00
 -115.00    30.00      -0.42 -999.99   -0.42    0.00000     0.00  LINEAR    4.45928E-01    82.77    0.00000E+00     0.00
 -110.00    30.00      -0.04 -999.99   -0.04    0.00000     0.00  LINEAR    4.65912E-01    49.27    0.00000E+00     0.00
 -105.00    30.00       0.27 -999.99    0.27    0.00000     0.00  LINEAR    4.82492E-01    23.02    0.00000E+00     0.00
 -100.00    30.00       0.48 -999.99    0.48    0.00000     0.00  LINEAR    4.94790E-01     4.15    0.00000E+00     0.00
  -95.00    30.00       0.62 -999.99    0.62    0.00000     0.00  LINEAR    5.02306E-01    -7.21    0.00000E+00     0.00
  -90.00    30.00       0.66 -999.99    0.66    0.00000     0.00  LINEAR    5.04829E-01   -11.01    0.00000E+00     0.00
  -85.00    30.00       0.62 -999.99    0.62    0.00000     0.00  LINEAR    5.02306E-01    -7.21    0.00000E+00     0.00
  -80.00    30.00       0.48 -999.99    0.48    0.00000     0.00  LINEAR    4.94790E-01     4.15    0.00000E+00     0.00
  -75.00    30.00       0.27 -999.99    0.27    0.00000     0.00  LINEAR    4.82492E-01    23.02    0.00000E+00     0.00
  -70.00    30.00      -0.04 -999.99   -0.04    0.00000     0.00  LINEAR    4.65912E-01    49.27    0.00000E+00     0.00
  -65.00    30.00      -0.42 -999.99   -0.42    0.00000     0.00  LINEAR    4.45928E-01    82.77    0.00000E+00     0.00
  -60.00    30.00      -0.87 -999.99   -0.87    0.00000     0.00  LINEAR    4.23603E-01   123.29    0.00000E+00     0.00
  -55.00    30.00      -1.37 -999.99   -1.37    0.00000     0.00  LINEAR    3.99502E-01   170.48    0.00000E+00     0.00
  -50.00    30.00      -1.97 -999.99   -1.97    0.00000     0.00  LINEAR    3.72908E-01  -136.16    0.00000E+00     0.00
  -45.00    30.00      -2.72 -999.99   -2.72    0.00000     0.00  LINEAR    3.42114E-01   -77.17    0.00000E+00     0.00
  -40.00    30.00      -3.68 -999.99   -3.68    0.00000     0.00  LINEAR    3.06449E-01   -12.93    0.00000E+00     0.00
  -35.00    30.00      -4.84 -999.99   -4.84    0.00000     0.00  LINEAR    2.68062E-01    56.20    0.00000E+00     0.00
  -30.00    30.00      -6.16 -999.99   -6.16    0.00000     0.00  LINEAR    2.30329E-01   129.64    0.00000E+00     0.00
  -25.00    30.00      -7.65 -999.99   -7.65    0.00000     0.00  LINEAR    1.94025E-01  -153.44    0.00000E+00     0.00
  -20.00    30.00      -9.49 -999.99   -9.49    0.00000     0.00  LINEAR    1.56975E-01   -73.57    0.00000E+00     0.00
  -15.00    30.00     -11.97 -999.99  -11.97    0.00000     0.00  LINEAR    1.17979E-01     9.14    0.00000E+00     0.00
  -10.00    30.00     -15.52 -999.99  -15.52    0.00000     0.00  LINEAR    7.83545E-02    94.17    0.00000E+00     0.00
   -5.00    30.00     -21.55 -999.99  -21.55    0.00000     0.00  LINEAR    3.91333E-02  -179.83    0.00000E+00     0.00
    0.00    30.00    -999.99 -999.99 -999.99    0.00000     0.00            0.00000E+00     0.00    0.00000E+00     0.00
 -180.00    35.00    -999.99 -999.99 -999.99    0.00000     0.00            4.58188E-12    86.03    0.00000E+00     0.00
 -175.00    35.00     -21.56 -999.99  -21.56    0.00000     0.00  LINEAR    3.91212E-02   167.47    0.00000E+00     0.00
 -170.00    35.00     -15.52 -999.99  -15.52    0.00000     0.00  LINEAR    7.83779E-02    68.66    0.00000E+00     0.00
 -165.00    35.00     -11.98 -999.99  -11.98    0.00000     0.00  LINEAR    1.17813E-01   -28.78    0.00000E+00     0.00
 -160.00    35.00      -9.57 -999.99   -9.57    0.00000     0.00  LINEAR    1.55576E-01  -123.43    0.00000E+00     0.00
 -155.00    35.00      -7.76 -999.99   -7.76    0.00000     0.00  LINEAR    1.91614E-01   144.79    0.00000E+00     0.00
 -150.00    35.00      -6.21 -999.99   -6.21    0.00000     0.00  LINEAR    2.29040E-01    56.22    0.00000E+00     0.00
 -145.00    35.00      -4.86 -999.99   -4.86    0.00000     0.00  LINEAR    2.67480E-01   -28.07    0.00000E+00     0.00
 -140.00    35.00      -3.80 -999.99   -3.80    0.00000     0.00  LINEAR    3.02195E-01  -107.40    0.00000E+00     0.00
 -135.00    35.00      -3.00 -999.99   -3.00    0.00000     0.00  LINEAR    3.31479E-01   178.57    0.00000E+00     0.00
 -130.00    35.00      -2.32 -999.99   -2.32    0.00000     0.00  LINEAR    3.58436E-01   110.52    0.00000E+00     0.00
[...]
  -70.00   340.00       0.64 -999.99    0.64    0.00000     0.00  LINEAR    5.03554E-01   179.51    0.00000E+00     0.00
  -65.00   340.00       0.20 -999.99    0.20    0.00000     0.00  LINEAR    4.78777E-01   157.07    0.00000E+00     0.00
  -60.00   340.00      -0.34 -999.99   -0.34    0.00000     0.00  LINEAR    4.49747E-01   129.97    0.00000E+00     0.00
  -55.00   340.00      -0.99 -999.99   -0.99    0.00000     0.00  LINEAR    4.17492E-01    98.44    0.00000E+00     0.00
  -50.00   340.00      -1.74 -999.99   -1.74    0.00000     0.00  LINEAR    3.83185E-01    62.71    0.00000E+00     0.00
  -45.00   340.00      -2.58 -999.99   -2.58    0.00000     0.00  LINEAR    3.47820E-01    23.11    0.00000E+00     0.00
  -40.00   340.00      -3.53 -999.99   -3.53    0.00000     0.00  LINEAR    3.11853E-01   -20.04    0.00000E+00     0.00
  -35.00   340.00      -4.61 -999.99   -4.61    0.00000     0.00  LINEAR    2.75113E-01   -66.42    0.00000E+00     0.00
  -30.00   340.00      -5.90 -999.99   -5.90    0.00000     0.00  LINEAR    2.37171E-01  -115.79    0.00000E+00     0.00
  -25.00   340.00      -7.47 -999.99   -7.47    0.00000     0.00  LINEAR    1.97943E-01  -167.93    0.00000E+00     0.00
  -20.00   340.00      -9.43 -999.99   -9.43    0.00000     0.00  LINEAR    1.57961E-01   137.47    0.00000E+00     0.00
  -15.00   340.00     -11.97 -999.99  -11.97    0.00000     0.00  LINEAR    1.17998E-01    80.92    0.00000E+00     0.00
  -10.00   340.00     -15.51 -999.99  -15.51    0.00000     0.00  LINEAR    7.84460E-02    23.09    0.00000E+00     0.00
   -5.00   340.00     -21.54 -999.99  -21.54    0.00000     0.00  LINEAR    3.91855E-02   -35.34    0.00000E+00     0.00
    0.00   340.00    -999.99 -999.99 -999.99    0.00000     0.00            0.00000E+00     0.00    0.00000E+00     0.00
 -180.00   345.00    -999.99 -999.99 -999.99    0.00000     0.00            4.58188E-12    86.03    0.00000E+00     0.00
 -175.00   345.00     -21.54 -999.99  -21.54    0.00000     0.00  LINEAR    3.91940E-02   -49.62    0.00000E+00     0.00
 -170.00   345.00     -15.51 -999.99  -15.51    0.00000     0.00  LINEAR    7.84854E-02    -5.49    0.00000E+00     0.00
 -165.00   345.00     -11.97 -999.99  -11.97    0.00000     0.00  LINEAR    1.18017E-01    38.14    0.00000E+00     0.00
 -160.00   345.00      -9.43 -999.99   -9.43    0.00000     0.00  LINEAR    1.57949E-01    80.90    0.00000E+00     0.00
 -155.00   345.00      -7.46 -999.99   -7.46    0.00000     0.00  LINEAR    1.98300E-01   122.36    0.00000E+00     0.00
 -150.00   345.00      -5.84 -999.99   -5.84    0.00000     0.00  LINEAR    2.38809E-01   162.10    0.00000E+00     0.00
 -145.00   345.00      -4.49 -999.99   -4.49    0.00000     0.00  LINEAR    2.78959E-01  -160.25    0.00000E+00     0.00
 -140.00   345.00      -3.35 -999.99   -3.35    0.00000     0.00  LINEAR    3.18143E-01  -124.97    0.00000E+00     0.00
 -135.00   345.00      -2.38 -999.99   -2.38    0.00000     0.00  LINEAR    3.55826E-01   -92.29    0.00000E+00     0.00
 -130.00   345.00      -1.55 -999.99   -1.55    0.00000     0.00  LINEAR    3.91605E-01   -62.39    0.00000E+00     0.00
 -125.00   345.00      -0.83 -999.99   -0.83    0.00000     0.00  LINEAR    4.25136E-01   -35.47    0.00000E+00     0.00
 -120.00   345.00      -0.22 -999.99   -0.22    0.00000     0.00  LINEAR    4.56031E-01   -11.70    0.00000E+00     0.00
 -115.00   345.00       0.29 -999.99    0.29    0.00000     0.00  LINEAR    4.83785E-01     8.74    0.00000E+00     0.00
 -110.00   345.00       0.71 -999.99    0.71    0.00000     0.00  LINEAR    5.07779E-01    25.69    0.00000E+00     0.00
 -105.00   345.00       1.04 -999.99    1.04    0.00000     0.00  LINEAR    5.27341E-01    39.02    0.00000E+00     0.00
 -100.00   345.00       1.27 -999.99    1.27    0.00000     0.00  LINEAR    5.41838E-01    48.62    0.00000E+00     0.00
  -95.00   345.00       1.41 -999.99    1.41    0.00000     0.00  LINEAR    5.50758E-01    54.40    0.00000E+00     0.00
  -90.00   345.00       1.46 -999.99    1.46    0.00000     0.00  LINEAR    5.53769E-01    56.34    0.00000E+00     0.00
  -85.00   345.00       1.41 -999.99    1.41    0.00000     0.00  LINEAR    5.50758E-01    54.40    0.00000E+00     0.00
  -80.00   345.00       1.27 -999.99    1.27    0.00000     0.00  LINEAR    5.41838E-01    48.62    0.00000E+00     0.00
  -75.00   345.00       1.04 -999.99    1.04    0.00000     0.00  LINEAR    5.27341E-01    39.02    0.00000E+00     0.00
  -70.00   345.00       0.71 -999.99    0.71    0.00000     0.00  LINEAR    5.07779E-01    25.69    0.00000E+00     0.00
  -65.00   345.00       0.29 -999.99    0.29    0.00000     0.00  LINEAR    4.83785E-01     8.74    0.00000E+00     0.00
  -60.00   345.00      -0.22 -999.99   -0.22    0.00000     0.00  LINEAR    4.56031E-01   -11.70    0.00000E+00     0.00
  -55.00   345.00      -0.83 -999.99   -0.83    0.00000     0.00  LINEAR    4.25136E-01   -35.47    0.00000E+00     0.00
  -50.00   345.00      -1.55 -999.99   -1.55    0.00000     0.00  LINEAR    3.91605E-01   -62.39    0.00000E+00     0.00
  -45.00   345.00      -2.38 -999.99   -2.38    0.00000     0.00  LINEAR    3.55826E-01   -92.29    0.00000E+00     0.00
  -40.00   345.00      -3.35 -999.99   -3.35    0.00000     0.00  LINEAR    3.18143E-01  -124.97    0.00000E+00     0.00
  -35.00   345.00      -4.49 -999.99   -4.49    0.00000     0.00  LINEAR    2.78959E-01  -160.25    0.00000E+00     0.00
  -30.00   345.00      -5.84 -999.99   -5.84    0.00000     0.00  LINEAR    2.38809E-01   162.10    0.00000E+00     0.00
  -25.00   345.00      -7.46 -999.99   -7.46    0.00000     0.00  LINEAR    1.98300E-01   122.36    0.00000E+00     0.00
  -20.00   345.00      -9.43 -999.99   -9.43    0.00000     0.00  LINEAR    1.57949E-01    80.90    0.00000E+00     0.00
  -15.00   345.00     -11.97 -999.99  -11.97    0.00000     0.00  LINEAR    1.18017E-01    38.14    0.00000E+00     0.00
  -10.00   345.00     -15.51 -999.99  -15.51    0.00000     0.00  LINEAR    7.84854E-02    -5.49    0.00000E+00     0.00
   -5.00   345.00     -21.54 -999.99  -21.54    0.00000     0.00  LINEAR    3.91940E-02   -49.62    0.00000E+00     0.00
    0.00   345.00    -999.99 -999.99 -999.99    0.00000     0.00            0.00000E+00     0.00    0.00000E+00     0.00
 -180.00   350.00    -999.99 -999.99 -999.99    0.00000     0.00            4.58188E-12    86.03    0.00000E+00     0.00
 -175.00   350.00     -21.54 -999.99  -21.54    0.00000     0.00  LINEAR    3.92001E-02   -64.22    0.00000E+00     0.00
 -170.00   350.00     -15.50 -999.99  -15.50    0.00000     0.00  LINEAR    7.85288E-02   -34.67    0.00000E+00     0.00
 -165.00   350.00     -11.96 -999.99  -11.96    0.00000     0.00  LINEAR    1.18098E-01    -5.50    0.00000E+00     0.00
 -160.00   350.00      -9.43 -999.99   -9.43    0.00000     0.00  LINEAR    1.58004E-01    23.06    0.00000E+00     0.00
 -155.00   350.00      -7.46 -999.99   -7.46    0.00000     0.00  LINEAR    1.98286E-01    50.81    0.00000E+00     0.00
 -150.00   350.00      -5.84 -999.99   -5.84    0.00000     0.00  LINEAR    2.38887E-01    77.49    0.00000E+00     0.00
 -145.00   350.00      -4.47 -999.99   -4.47    0.00000     0.00  LINEAR    2.79603E-01   102.87    0.00000E+00     0.00
 -140.00   350.00      -3.30 -999.99   -3.30    0.00000     0.00  LINEAR    3.20071E-01   126.74    0.00000E+00     0.00
 -135.00   350.00      -2.28 -999.99   -2.28    0.00000     0.00  LINEAR    3.59772E-01   148.90    0.00000E+00     0.00
 -130.00   350.00      -1.41 -999.99   -1.41    0.00000     0.00  LINEAR    3.98071E-01   169.17    0.00000E+00     0.00
 -125.00   350.00      -0.65 -999.99   -0.65    0.00000     0.00  LINEAR    4.34254E-01  -172.61    0.00000E+00     0.00
 -120.00   350.00      -0.01 -999.99   -0.01    0.00000     0.00  LINEAR    4.67579E-01  -156.55    0.00000E+00     0.00
 -115.00   350.00       0.53 -999.99    0.53    0.00000     0.00  LINEAR    4.97309E-01  -142.77    0.00000E+00     0.00
 -110.00   350.00       0.96 -999.99    0.96    0.00000     0.00  LINEAR    5.22747E-01  -131.37    0.00000E+00     0.00
 -105.00   350.00       1.30 -999.99    1.30    0.00000     0.00  LINEAR    5.43264E-01  -122.42    0.00000E+00     0.00
 -100.00   350.00       1.53 -999.99    1.53    0.00000     0.00  LINEAR    5.58330E-01  -115.98    0.00000E+00     0.00
  -95.00   350.00       1.68 -999.99    1.68    0.00000     0.00  LINEAR    5.67539E-01  -112.10    0.00000E+00     0.00
  -90.00   350.00       1.72 -999.99    1.72    0.00000     0.00  LINEAR    5.70638E-01  -110.80    0.00000E+00     0.00
  -85.00   350.00       1.68 -999.99    1.68    0.00000     0.00  LINEAR    5.67539E-01  -112.10    0.00000E+00     0.00
  -80.00   350.00       1.53 -999.99    1.53    0.00000     0.00  LINEAR    5.58330E-01  -115.98    0.00000E+00     0.00
  -75.00   350.00       1.30 -999.99    1.30    0.00000     0.00  LINEAR    5.43264E-01  -122.42    0.00000E+00     0.00
  -70.00   350.00       0.96 -999.99    0.96    0.00000     0.00  LINEAR    5.22747E-01  -131.37    0.00000E+00     0.00
  -65.00   350.00       0.53 -999.99    0.53    0.00000     0.00  LINEAR    4.97309E-01  -142.77    0.00000E+00     0.00
  -60.00   350.00      -0.01 -999.99   -0.01    0.00000     0.00  LINEAR    4.67579E-01  -156.55    0.00000E+00     0.00
  -55.00   350.00      -0.65 -999.99   -0.65    0.00000     0.00  LINEAR    4.34254E-01  -172.61    0.00000E+00     0.00
  -50.00   350.00      -1.41 -999.99   -1.41    0.00000     0.00  LINEAR    3.98071E-01   169.17    0.00000E+00     0.00
  -45.00   350.00      -2.28 -999.99   -2.28    0.00000     0.00  LINEAR    3.59772E-01   148.90    0.00000E+00     0.00
  -40.00   350.00      -3.30 -999.99   -3.30    0.00000     0.00  LINEAR    3.20071E-01   126.74    0.00000E+00     0.00
  -35.00   350.00      -4.47 -999.99   -4.47    0.00000     0.00  LINEAR    2.79603E-01   102.87    0.00000E+00     0.00
  -30.00   350.00      -5.84 -999.99   -5.84    0.00000     0.00  LINEAR    2.38887E-01    77.49    0.00000E+00     0.00
  -25.00   350.00      -7.46 -999.99   -7.46    0.00000     0.00  LINEAR    1.98286E-01    50.81    0.00000E+00     0.00
  -20.00   350.00      -9.43 -999.99   -9.43    0.00000     0.00  LINEAR    1.58004E-01    23.06    0.00000E+00     0.00
  -15.00   350.00     -11.96 -999.99  -11.96    0.00000     0.00  LINEAR    1.18098E-01    -5.50    0.00000E+00     0.00
  -10.00   350.00     -15.50 -999.99  -15.50    0.00000     0.00  LINEAR    7.85288E-02   -34.67    0.00000E+00     0.00
   -5.00   350.00     -21.54 -999.99  -21.54    0.00000     0.00  LINEAR    3.92001E-02   -64.22    0.00000E+00     0.00
    0.00   350.00    -999.99 -999.99 -999.99    0.00000     0.00            0.00000E+00     0.00    0.00000E+00     0.00
 -180.00   355.00    -999.99 -999.99 -999.99    0.00000     0.00            4.58188E-12    86.03    0.00000E+00     0.00
 -175.00   355.00     -21.54 -999.99  -21.54    0.00000     0.00  LINEAR    3.92028E-02   -79.04    0.00000E+00     0.00
 -170.00   355.00     -15.50 -999.99  -15.50    0.00000     0.00  LINEAR    7.85590E-02   -64.23    0.00000E+00     0.00
 -165.00   355.00     -11.95 -999.99  -11.95    0.00000     0.00  LINEAR    1.18191E-01   -49.64    0.00000E+00     0.00
 -160.00   355.00      -9.42 -999.99   -9.42    0.00000     0.00  LINEAR    1.58172E-01   -35.37    0.00000E+00     0.00
 -155.00   355.00      -7.45 -999.99   -7.45    0.00000     0.00  LINEAR    1.98506E-01   -21.55    0.00000E+00     0.00
 -150.00   355.00      -5.83 -999.99   -5.83    0.00000     0.00  LINEAR    2.39105E-01    -8.26    0.00000E+00     0.00
 -145.00   355.00      -4.47 -999.99   -4.47    0.00000     0.00  LINEAR    2.79770E-01     4.40    0.00000E+00     0.00
 -140.00   355.00      -3.30 -999.99   -3.30    0.00000     0.00  LINEAR    3.20184E-01    16.31    0.00000E+00     0.00
 -135.00   355.00      -2.28 -999.99   -2.28    0.00000     0.00  LINEAR    3.59905E-01    27.39    0.00000E+00     0.00
 -130.00   355.00      -1.40 -999.99   -1.40    0.00000     0.00  LINEAR    3.98370E-01    37.55    0.00000E+00     0.00
 -125.00   355.00      -0.64 -999.99   -0.64    0.00000     0.00  LINEAR    4.34915E-01    46.72    0.00000E+00     0.00
 -120.00   355.00       0.02 -999.99    0.02    0.00000     0.00  LINEAR    4.68797E-01    54.81    0.00000E+00     0.00
 -115.00   355.00       0.56 -999.99    0.56    0.00000     0.00  LINEAR    4.99233E-01    61.76    0.00000E+00     0.00
 -110.00   355.00       1.01 -999.99    1.01    0.00000     0.00  LINEAR    5.25444E-01    67.53    0.00000E+00     0.00
 -105.00   355.00       1.35 -999.99    1.35    0.00000     0.00  LINEAR    5.46702E-01    72.07    0.00000E+00     0.00
 -100.00   355.00       1.60 -999.99    1.60    0.00000     0.00  LINEAR    5.62378E-01    75.33    0.00000E+00     0.00
  -95.00   355.00       1.74 -999.99    1.74    0.00000     0.00  LINEAR    5.71988E-01    77.30    0.00000E+00     0.00
  -90.00   355.00       1.79 -999.99    1.79    0.00000     0.00  LINEAR    5.75226E-01    77.95    0.00000E+00     0.00
  -85.00   355.00       1.74 -999.99    1.74    0.00000     0.00  LINEAR    5.71988E-01    77.30    0.00000E+00     0.00
  -80.00   355.00       1.60 -999.99    1.60    0.00000     0.00  LINEAR    5.62378E-01    75.33    0.00000E+00     0.00
  -75.00   355.00       1.35 -999.99    1.35    0.00000     0.00  LINEAR    5.46702E-01    72.07    0.00000E+00     0.00
  -70.00   355.00       1.01 -999.99    1.01    0.00000     0.00  LINEAR    5.25444E-01    67.53    0.00000E+00     0.00
  -65.00   355.00       0.56 -999.99    0.56    0.00000     0.00  LINEAR    4.99233E-01    61.76    0.00000E+00     0.00
  -60.00   355.00       0.02 -999.99    0.02    0.00000     0.00  LINEAR    4.68797E-01    54.81    0.00000E+00     0.00
  -55.00   355.00      -0.64 -999.99   -0.64    0.00000     0.00  LINEAR    4.34915E-01    46.72    0.00000E+00     0.00
  -50.00   355.00      -1.40 -999.99   -1.40    0.00000     0.00  LINEAR    3.98370E-01    37.55    0.00000E+00     0.00
  -45.00   355.00      -2.28 -999.99   -2.28    0.00000     0.00  LINEAR    3.59905E-01    27.39    0.00000E+00     0.00
  -40.00   355.00      -3.30 -999.99   -3.30    0.00000     0.00  LINEAR    3.20184E-01    16.31    0.00000E+00     0.00
  -35.00   355.00      -4.47 -999.99   -4.47    0.00000     0.00  LINEAR    2.79770E-01     4.40    0.00000E+00     0.00
  -30.00   355.00      -5.83 -999.99   -5.83    0.00000     0.00  LINEAR    2.39105E-01    -8.26    0.00000E+00     0.00
  -25.00   355.00      -7.45 -999.99   -7.45    0.00000     0.00  LINEAR    1.98506E-01   -21.55    0.00000E+00     0.00
  -20.00   355.00      -9.42 -999.99   -9.42    0.00000     0.00  LINEAR    1.58172E-01   -35.37    0.00000E+00     0.00
  -15.00   355.00     -11.95 -999.99  -11.95    0.00000     0.00  LINEAR    1.18191E-01   -49.64    0.00000E+00     0.00
  -10.00   355.00     -15.50 -999.99  -15.50    0.00000     0.00  LINEAR    7.85590E-02   -64.23    0.00000E+00     0.00
   -5.00   355.00     -21.54 -999.99  -21.54    0.00000     0.00  LINEAR    3.92028E-02   -79.04    0.00000E+00     0.00
    0.00   355.00    -999.99 -999.99 -999.99    0.00000     0.00            0.00000E+00     0.00    0.00000E+00     0.00
 -180.00   360.00    -999.99 -999.99 -999.99    0.00000     0.00            4.58188E-12    86.03    0.00000E+00     0.00
 -175.00   360.00     -21.54 -999.99  -21.54    0.00000     0.00  LINEAR    3.92016E-02   -93.97    0.00000E+00     0.00
 -170.00   360.00     -15.50 -999.99  -15.50    0.00000     0.00  LINEAR    7.85618E-02   -93.98    0.00000E+00     0.00
 -165.00   360.00     -11.95 -999.99  -11.95    0.00000     0.00  LINEAR    1.18213E-01   -93.99    0.00000E+00     0.00
 -160.00   360.00      -9.42 -999.99   -9.42    0.00000     0.00  LINEAR    1.58236E-01   -94.00    0.00000E+00     0.00
 -155.00   360.00      -7.44 -999.99   -7.44    0.00000     0.00  LINEAR    1.98635E-01   -94.02    0.00000E+00     0.00
 -150.00   360.00      -5.82 -999.99   -5.82    0.00000     0.00  LINEAR    2.39320E-01   -94.04    0.00000E+00     0.00
 -145.00   360.00      -4.46 -999.99   -4.46    0.00000     0.00  LINEAR    2.80088E-01   -94.06    0.00000E+00     0.00
 -140.00   360.00      -3.28 -999.99   -3.28    0.00000     0.00  LINEAR    3.20612E-01   -94.09    0.00000E+00     0.00
 -135.00   360.00      -2.27 -999.99   -2.27    0.00000     0.00  LINEAR    3.60444E-01   -94.11    0.00000E+00     0.00
 -130.00   360.00      -1.38 -999.99   -1.38    0.00000     0.00  LINEAR    3.99013E-01   -94.13    0.00000E+00     0.00
 -125.00   360.00      -0.62 -999.99   -0.62    0.00000     0.00  LINEAR    4.35651E-01   -94.15    0.00000E+00     0.00
 -120.00   360.00       0.03 -999.99    0.03    0.00000     0.00  LINEAR    4.69613E-01   -94.17    0.00000E+00     0.00
 -115.00   360.00       0.58 -999.99    0.58    0.00000     0.00  LINEAR    5.00115E-01   -94.19    0.00000E+00     0.00
 -110.00   360.00       1.02 -999.99    1.02    0.00000     0.00  LINEAR    5.26377E-01   -94.21    0.00000E+00     0.00
 -105.00   360.00       1.37 -999.99    1.37    0.00000     0.00  LINEAR    5.47674E-01   -94.22    0.00000E+00     0.00
 -100.00   360.00       1.61 -999.99    1.61    0.00000     0.00  LINEAR    5.63377E-01   -94.23    0.00000E+00     0.00
  -95.00   360.00       1.76 -999.99    1.76    0.00000     0.00  LINEAR    5.73002E-01   -94.23    0.00000E+00     0.00
  -90.00   360.00       1.81 -999.99    1.81    0.00000     0.00  LINEAR    5.76246E-01   -94.24    0.00000E+00     0.00
  -85.00   360.00       1.76 -999.99    1.76    0.00000     0.00  LINEAR    5.73002E-01   -94.23    0.00000E+00     0.00
  -80.00   360.00       1.61 -999.99    1.61    0.00000     0.00  LINEAR    5.63377E-01   -94.23    0.00000E+00     0.00
  -75.00   360.00       1.37 -999.99    1.37    0.00000     0.00  LINEAR    5.47674E-01   -94.22    0.00000E+00     0.00
  -70.00   360.00       1.02 -999.99    1.02    0.00000     0.00  LINEAR    5.26377E-01   -94.21    0.00000E+00     0.00
  -65.00   360.00       0.58 -999.99    0.58    0.00000     0.00  LINEAR    5.00115E-01   -94.19    0.00000E+00     0.00
  -60.00   360.00       0.03 -999.99    0.03    0.00000     0.00  LINEAR    4.69613E-01   -94.17    0.00000E+00     0.00
  -55.00   360.00      -0.62 -999.99   -0.62    0.00000     0.00  LINEAR    4.35651E-01   -94.15    0.00000E+00     0.00
  -50.00   360.00      -1.38 -999.99   -1.38    0.00000     0.00  LINEAR    3.99013E-01   -94.13    0.00000E+00     0.00
  -45.00   360.00      -2.27 -999.99   -2.27    0.00000     0.00  LINEAR    3.60444E-01   -94.11    0.00000E+00     0.00
  -40.00   360.00      -3.28 -999.99   -3.28    0.00000     0.00  LINEAR    3.20612E-01   -94.09    0.00000E+00     0.00
  -35.00   360.00      -4.46 -999.99   -4.46    0.00000     0.00  LINEAR    2.80088E-01   -94.06    0.00000E+00     0.00
  -30.00   360.00      -5.82 -999.99   -5.82    0.00000     0.00  LINEAR    2.39320E-01   -94.04    0.00000E+00     0.00
  -25.00   360.00      -7.44 -999.99   -7.44    0.00000     0.00  LINEAR    1.98635E-01   -94.02    0.00000E+00     0.00
  -20.00   360.00      -9.42 -999.99   -9.42    0.00000     0.00  LINEAR    1.58236E-01   -94.00    0.00000E+00     0.00
  -15.00   360.00     -11.95 -999.99  -11.95    0.00000     0.00  LINEAR    1.18213E-01   -93.99    0.00000E+00     0.00
  -10.00   360.00     -15.50 -999.99  -15.50    0.00000     0.00  LINEAR    7.85618E-02   -93.98    0.00000E+00     0.00
   -5.00   360.00     -21.54 -999.99  -21.54    0.00000     0.00  LINEAR    3.92016E-02   -93.97    0.00000E+00     0.00
    0.00   360.00    -999.99 -999.99 -999.99    0.00000     0.00            0.00000E+00     0.00    0.00000E+00     0.00


   AVERAGE POWER GAIN= 5.81729E-01       SOLID ANGLE USED IN AVERAGING=( 4.0000)*PI STERADIANS.








 ***** DATA CARD NO. 26   EN   0    37    73  1003 -1.80000E+02  0.00000E+00  5.00000E+00  5.00000E+00  0.00000E+00  0.00000E+00

 RUN TIME =     0.313
