1



                                 *********************************************

                                    NUMERICAL ELECTROMAGNETICS CODE (NEC-2D)

                                 *********************************************




                                     - - - - COMMENTS - - - -


                                                                                                     
                          forw:-999, 0 ; back: 0, 0                                                  
                                                                                                     




                                 - - - STRUCTURE SPECIFICATION - - -

                                     COORDINATES MUST BE INPUT IN
                                     METERS OR BE SCALED TO METERS
                                     BEFORE STRUCTURE INPUT IS ENDED


  WIRE                                                                               NO. OF    FIRST  LAST     TAG
  NO.        X1         Y1         Z1          X2         Y2         Z2      RADIUS   SEG.     SEG.   SEG.     NO.
     1    0.00000    0.00000   -0.17430     0.00000    0.00000    0.17430    0.00010      9        1     9       1
     2    0.00000    0.34860   -0.17430     0.00000    0.34860    0.17430    0.00010      9       10    18       2
     3    0.00000    0.69719   -0.17430     0.00000    0.69719    0.17430    0.00010      9       19    27       3
     4    0.00000    1.04579   -0.17430     0.00000    1.04579    0.17430    0.00010      9       28    36       4
     5    0.00000    1.39438   -0.17430     0.00000    1.39438    0.17430    0.00010      9       37    45       5
     6    0.00000    1.74298   -0.17430     0.00000    1.74298    0.17430    0.00010      9       46    54       6
     7    0.00000    2.09158   -0.17430     0.00000    2.09158    0.17430    0.00010      9       55    63       7
     8    0.00000    2.44017   -0.17430     0.00000    2.44017    0.17430    0.00010      9       64    72       8
     9    0.00000    2.78877   -0.17430     0.00000    2.78877    0.17430    0.00010      9       73    81       9
    10    0.00000    3.13736   -0.17430     0.00000    3.13736    0.17430    0.00010      9       82    90      10
    11    0.00000    3.48596   -0.17430     0.00000    3.48596    0.17430    0.00010      9       91    99      11
    12    0.00000    3.83455   -0.17430     0.00000    3.83455    0.17430    0.00010      9      100   108      12
    13    0.00000    4.18315   -0.17430     0.00000    4.18315    0.17430    0.00010      9      109   117      13
    14    0.00000    4.53175   -0.17430     0.00000    4.53175    0.17430    0.00010      9      118   126      14
    15    0.00000    4.88034   -0.17430     0.00000    4.88034    0.17430    0.00010      9      127   135      15
    16    0.00000    5.22894   -0.17430     0.00000    5.22894    0.17430    0.00010      9      136   144      16
    17    0.00000    5.57753   -0.17430     0.00000    5.57753    0.17430    0.00010      9      145   153      17
    18    0.00000    5.92613   -0.17430     0.00000    5.92613    0.17430    0.00010      9      154   162      18
    19    0.00000    6.27473   -0.17430     0.00000    6.27473    0.17430    0.00010      9      163   171      19
    20    0.00000    6.62332   -0.17430     0.00000    6.62332    0.17430    0.00010      9      172   180      20

   TOTAL SEGMENTS USED=  180     NO. SEG. IN A SYMMETRIC CELL=  180     SYMMETRY FLAG=  0


         - MULTIPLE WIRE JUNCTIONS -
 JUNCTION    SEGMENTS  (- FOR END 1, + FOR END 2)
  NONE




                                 - - - - SEGMENTATION DATA - - - -

                                        COORDINATES IN METERS

                         I+ AND I- INDICATE THE SEGMENTS BEFORE AND AFTER I


  SEG.   COORDINATES OF SEG. CENTER     SEG.     ORIENTATION ANGLES    WIRE    CONNECTION DATA   TAG
  NO.       X         Y         Z       LENGTH     ALPHA     BETA      RADIUS    I-   I    I+    NO.
     1   0.00000   0.00000  -0.15493   0.03873   90.00000   0.00000   0.00010     0    1    2      1
     2   0.00000   0.00000  -0.11620   0.03873   90.00000   0.00000   0.00010     1    2    3      1
     3   0.00000   0.00000  -0.07747   0.03873   90.00000   0.00000   0.00010     2    3    4      1
     4   0.00000   0.00000  -0.03873   0.03873   90.00000   0.00000   0.00010     3    4    5      1
     5   0.00000   0.00000   0.00000   0.03873   90.00000   0.00000   0.00010     4    5    6      1
     6   0.00000   0.00000   0.03873   0.03873   90.00000   0.00000   0.00010     5    6    7      1
     7   0.00000   0.00000   0.07747   0.03873   90.00000   0.00000   0.00010     6    7    8      1
     8   0.00000   0.00000   0.11620   0.03873   90.00000   0.00000   0.00010     7    8    9      1
     9   0.00000   0.00000   0.15493   0.03873   90.00000   0.00000   0.00010     8    9    0      1
    10   0.00000   0.34860  -0.15493   0.03873   90.00000   0.00000   0.00010     0   10   11      2
    11   0.00000   0.34860  -0.11620   0.03873   90.00000   0.00000   0.00010    10   11   12      2
    12   0.00000   0.34860  -0.07747   0.03873   90.00000   0.00000   0.00010    11   12   13      2
    13   0.00000   0.34860  -0.03873   0.03873   90.00000   0.00000   0.00010    12   13   14      2
    14   0.00000   0.34860   0.00000   0.03873   90.00000   0.00000   0.00010    13   14   15      2
    15   0.00000   0.34860   0.03873   0.03873   90.00000   0.00000   0.00010    14   15   16      2
    16   0.00000   0.34860   0.07747   0.03873   90.00000   0.00000   0.00010    15   16   17      2
    17   0.00000   0.34860   0.11620   0.03873   90.00000   0.00000   0.00010    16   17   18      2
    18   0.00000   0.34860   0.15493   0.03873   90.00000   0.00000   0.00010    17   18    0      2
    19   0.00000   0.69719  -0.15493   0.03873   90.00000   0.00000   0.00010     0   19   20      3
    20   0.00000   0.69719  -0.11620   0.03873   90.00000   0.00000   0.00010    19   20   21      3
    21   0.00000   0.69719  -0.07747   0.03873   90.00000   0.00000   0.00010    20   21   22      3
    22   0.00000   0.69719  -0.03873   0.03873   90.00000   0.00000   0.00010    21   22   23      3
    23   0.00000   0.69719   0.00000   0.03873   90.00000   0.00000   0.00010    22   23   24      3
    24   0.00000   0.69719   0.03873   0.03873   90.00000   0.00000   0.00010    23   24   25      3
    25   0.00000   0.69719   0.07747   0.03873   90.00000   0.00000   0.00010    24   25   26      3
    26   0.00000   0.69719   0.11620   0.03873   90.00000   0.00000   0.00010    25   26   27      3
    27   0.00000   0.69719   0.15493   0.03873   90.00000   0.00000   0.00010    26   27    0      3
    28   0.00000   1.04579  -0.15493   0.03873   90.00000   0.00000   0.00010     0   28   29      4
    29   0.00000   1.04579  -0.11620   0.03873   90.00000   0.00000   0.00010    28   29   30      4
    30   0.00000   1.04579  -0.07747   0.03873   90.00000   0.00000   0.00010    29   30   31      4
    31   0.00000   1.04579  -0.03873   0.03873   90.00000   0.00000   0.00010    30   31   32      4
    32   0.00000   1.04579   0.00000   0.03873   90.00000   0.00000   0.00010    31   32   33      4
    33   0.00000   1.04579   0.03873   0.03873   90.00000   0.00000   0.00010    32   33   34      4
    34   0.00000   1.04579   0.07747   0.03873   90.00000   0.00000   0.00010    33   34   35      4
    35   0.00000   1.04579   0.11620   0.03873   90.00000   0.00000   0.00010    34   35   36      4
    36   0.00000   1.04579   0.15493   0.03873   90.00000   0.00000   0.00010    35   36    0      4
    37   0.00000   1.39438  -0.15493   0.03873   90.00000   0.00000   0.00010     0   37   38      5
    38   0.00000   1.39438  -0.11620   0.03873   90.00000   0.00000   0.00010    37   38   39      5
    39   0.00000   1.39438  -0.07747   0.03873   90.00000   0.00000   0.00010    38   39   40      5
    40   0.00000   1.39438  -0.03873   0.03873   90.00000   0.00000   0.00010    39   40   41      5
    41   0.00000   1.39438   0.00000   0.03873   90.00000   0.00000   0.00010    40   41   42      5
    42   0.00000   1.39438   0.03873   0.03873   90.00000   0.00000   0.00010    41   42   43      5
    43   0.00000   1.39438   0.07747   0.03873   90.00000   0.00000   0.00010    42   43   44      5
    44   0.00000   1.39438   0.11620   0.03873   90.00000   0.00000   0.00010    43   44   45      5
    45   0.00000   1.39438   0.15493   0.03873   90.00000   0.00000   0.00010    44   45    0      5
    46   0.00000   1.74298  -0.15493   0.03873   90.00000   0.00000   0.00010     0   46   47      6
    47   0.00000   1.74298  -0.11620   0.03873   90.00000   0.00000   0.00010    46   47   48      6
    48   0.00000   1.74298  -0.07747   0.03873   90.00000   0.00000   0.00010    47   48   49      6
    49   0.00000   1.74298  -0.03873   0.03873   90.00000   0.00000   0.00010    48   49   50      6
    50   0.00000   1.74298   0.00000   0.03873   90.00000   0.00000   0.00010    49   50   51      6
    51   0.00000   1.74298   0.03873   0.03873   90.00000   0.00000   0.00010    50   51   52      6
    52   0.00000   1.74298   0.07747   0.03873   90.00000   0.00000   0.00010    51   52   53      6
    53   0.00000   1.74298   0.11620   0.03873   90.00000   0.00000   0.00010    52   53   54      6
    54   0.00000   1.74298   0.15493   0.03873   90.00000   0.00000   0.00010    53   54    0      6
    55   0.00000   2.09158  -0.15493   0.03873   90.00000   0.00000   0.00010     0   55   56      7
    56   0.00000   2.09158  -0.11620   0.03873   90.00000   0.00000   0.00010    55   56   57      7
    57   0.00000   2.09158  -0.07747   0.03873   90.00000   0.00000   0.00010    56   57   58      7
    58   0.00000   2.09158  -0.03873   0.03873   90.00000   0.00000   0.00010    57   58   59      7
    59   0.00000   2.09158   0.00000   0.03873   90.00000   0.00000   0.00010    58   59   60      7
    60   0.00000   2.09158   0.03873   0.03873   90.00000   0.00000   0.00010    59   60   61      7
    61   0.00000   2.09158   0.07747   0.03873   90.00000   0.00000   0.00010    60   61   62      7
    62   0.00000   2.09158   0.11620   0.03873   90.00000   0.00000   0.00010    61   62   63      7
    63   0.00000   2.09158   0.15493   0.03873   90.00000   0.00000   0.00010    62   63    0      7
    64   0.00000   2.44017  -0.15493   0.03873   90.00000   0.00000   0.00010     0   64   65      8
    65   0.00000   2.44017  -0.11620   0.03873   90.00000   0.00000   0.00010    64   65   66      8
    66   0.00000   2.44017  -0.07747   0.03873   90.00000   0.00000   0.00010    65   66   67      8
    67   0.00000   2.44017  -0.03873   0.03873   90.00000   0.00000   0.00010    66   67   68      8
    68   0.00000   2.44017   0.00000   0.03873   90.00000   0.00000   0.00010    67   68   69      8
    69   0.00000   2.44017   0.03873   0.03873   90.00000   0.00000   0.00010    68   69   70      8
    70   0.00000   2.44017   0.07747   0.03873   90.00000   0.00000   0.00010    69   70   71      8
    71   0.00000   2.44017   0.11620   0.03873   90.00000   0.00000   0.00010    70   71   72      8
    72   0.00000   2.44017   0.15493   0.03873   90.00000   0.00000   0.00010    71   72    0      8
    73   0.00000   2.78877  -0.15493   0.03873   90.00000   0.00000   0.00010     0   73   74      9
    74   0.00000   2.78877  -0.11620   0.03873   90.00000   0.00000   0.00010    73   74   75      9
    75   0.00000   2.78877  -0.07747   0.03873   90.00000   0.00000   0.00010    74   75   76      9
    76   0.00000   2.78877  -0.03873   0.03873   90.00000   0.00000   0.00010    75   76   77      9
    77   0.00000   2.78877   0.00000   0.03873   90.00000   0.00000   0.00010    76   77   78      9
    78   0.00000   2.78877   0.03873   0.03873   90.00000   0.00000   0.00010    77   78   79      9
    79   0.00000   2.78877   0.07747   0.03873   90.00000   0.00000   0.00010    78   79   80      9
    80   0.00000   2.78877   0.11620   0.03873   90.00000   0.00000   0.00010    79   80   81      9
    81   0.00000   2.78877   0.15493   0.03873   90.00000   0.00000   0.00010    80   81    0      9
    82   0.00000   3.13736  -0.15493   0.03873   90.00000   0.00000   0.00010     0   82   83     10
    83   0.00000   3.13736  -0.11620   0.03873   90.00000   0.00000   0.00010    82   83   84     10
    84   0.00000   3.13736  -0.07747   0.03873   90.00000   0.00000   0.00010    83   84   85     10
    85   0.00000   3.13736  -0.03873   0.03873   90.00000   0.00000   0.00010    84   85   86     10
    86   0.00000   3.13736   0.00000   0.03873   90.00000   0.00000   0.00010    85   86   87     10
    87   0.00000   3.13736   0.03873   0.03873   90.00000   0.00000   0.00010    86   87   88     10
    88   0.00000   3.13736   0.07747   0.03873   90.00000   0.00000   0.00010    87   88   89     10
    89   0.00000   3.13736   0.11620   0.03873   90.00000   0.00000   0.00010    88   89   90     10
    90   0.00000   3.13736   0.15493   0.03873   90.00000   0.00000   0.00010    89   90    0     10
    91   0.00000   3.48596  -0.15493   0.03873   90.00000   0.00000   0.00010     0   91   92     11
    92   0.00000   3.48596  -0.11620   0.03873   90.00000   0.00000   0.00010    91   92   93     11
    93   0.00000   3.48596  -0.07747   0.03873   90.00000   0.00000   0.00010    92   93   94     11
    94   0.00000   3.48596  -0.03873   0.03873   90.00000   0.00000   0.00010    93   94   95     11
    95   0.00000   3.48596   0.00000   0.03873   90.00000   0.00000   0.00010    94   95   96     11
    96   0.00000   3.48596   0.03873   0.03873   90.00000   0.00000   0.00010    95   96   97     11
    97   0.00000   3.48596   0.07747   0.03873   90.00000   0.00000   0.00010    96   97   98     11
    98   0.00000   3.48596   0.11620   0.03873   90.00000   0.00000   0.00010    97   98   99     11
    99   0.00000   3.48596   0.15493   0.03873   90.00000   0.00000   0.00010    98   99    0     11
   100   0.00000   3.83455  -0.15493   0.03873   90.00000   0.00000   0.00010     0  100  101     12
   101   0.00000   3.83455  -0.11620   0.03873   90.00000   0.00000   0.00010   100  101  102     12
   102   0.00000   3.83455  -0.07747   0.03873   90.00000   0.00000   0.00010   101  102  103     12
   103   0.00000   3.83455  -0.03873   0.03873   90.00000   0.00000   0.00010   102  103  104     12
   104   0.00000   3.83455   0.00000   0.03873   90.00000   0.00000   0.00010   103  104  105     12
   105   0.00000   3.83455   0.03873   0.03873   90.00000   0.00000   0.00010   104  105  106     12
   106   0.00000   3.83455   0.07747   0.03873   90.00000   0.00000   0.00010   105  106  107     12
   107   0.00000   3.83455   0.11620   0.03873   90.00000   0.00000   0.00010   106  107  108     12
   108   0.00000   3.83455   0.15493   0.03873   90.00000   0.00000   0.00010   107  108    0     12
   109   0.00000   4.18315  -0.15493   0.03873   90.00000   0.00000   0.00010     0  109  110     13
   110   0.00000   4.18315  -0.11620   0.03873   90.00000   0.00000   0.00010   109  110  111     13
   111   0.00000   4.18315  -0.07747   0.03873   90.00000   0.00000   0.00010   110  111  112     13
   112   0.00000   4.18315  -0.03873   0.03873   90.00000   0.00000   0.00010   111  112  113     13
   113   0.00000   4.18315   0.00000   0.03873   90.00000   0.00000   0.00010   112  113  114     13
   114   0.00000   4.18315   0.03873   0.03873   90.00000   0.00000   0.00010   113  114  115     13
   115   0.00000   4.18315   0.07747   0.03873   90.00000   0.00000   0.00010   114  115  116     13
   116   0.00000   4.18315   0.11620   0.03873   90.00000   0.00000   0.00010   115  116  117     13
   117   0.00000   4.18315   0.15493   0.03873   90.00000   0.00000   0.00010   116  117    0     13
   118   0.00000   4.53175  -0.15493   0.03873   90.00000   0.00000   0.00010     0  118  119     14
   119   0.00000   4.53175  -0.11620   0.03873   90.00000   0.00000   0.00010   118  119  120     14
   120   0.00000   4.53175  -0.07747   0.03873   90.00000   0.00000   0.00010   119  120  121     14
   121   0.00000   4.53175  -0.03873   0.03873   90.00000   0.00000   0.00010   120  121  122     14
   122   0.00000   4.53175   0.00000   0.03873   90.00000   0.00000   0.00010   121  122  123     14
   123   0.00000   4.53175   0.03873   0.03873   90.00000   0.00000   0.00010   122  123  124     14
   124   0.00000   4.53175   0.07747   0.03873   90.00000   0.00000   0.00010   123  124  125     14
   125   0.00000   4.53175   0.11620   0.03873   90.00000   0.00000   0.00010   124  125  126     14
   126   0.00000   4.53175   0.15493   0.03873   90.00000   0.00000   0.00010   125  126    0     14
   127   0.00000   4.88034  -0.15493   0.03873   90.00000   0.00000   0.00010     0  127  128     15
   128   0.00000   4.88034  -0.11620   0.03873   90.00000   0.00000   0.00010   127  128  129     15
   129   0.00000   4.88034  -0.07747   0.03873   90.00000   0.00000   0.00010   128  129  130     15
   130   0.00000   4.88034  -0.03873   0.03873   90.00000   0.00000   0.00010   129  130  131     15
   131   0.00000   4.88034   0.00000   0.03873   90.00000   0.00000   0.00010   130  131  132     15
   132   0.00000   4.88034   0.03873   0.03873   90.00000   0.00000   0.00010   131  132  133     15
   133   0.00000   4.88034   0.07747   0.03873   90.00000   0.00000   0.00010   132  133  134     15
   134   0.00000   4.88034   0.11620   0.03873   90.00000   0.00000   0.00010   133  134  135     15
   135   0.00000   4.88034   0.15493   0.03873   90.00000   0.00000   0.00010   134  135    0     15
   136   0.00000   5.22894  -0.15493   0.03873   90.00000   0.00000   0.00010     0  136  137     16
   137   0.00000   5.22894  -0.11620   0.03873   90.00000   0.00000   0.00010   136  137  138     16
   138   0.00000   5.22894  -0.07747   0.03873   90.00000   0.00000   0.00010   137  138  139     16
   139   0.00000   5.22894  -0.03873   0.03873   90.00000   0.00000   0.00010   138  139  140     16
   140   0.00000   5.22894   0.00000   0.03873   90.00000   0.00000   0.00010   139  140  141     16
   141   0.00000   5.22894   0.03873   0.03873   90.00000   0.00000   0.00010   140  141  142     16
   142   0.00000   5.22894   0.07747   0.03873   90.00000   0.00000   0.00010   141  142  143     16
   143   0.00000   5.22894   0.11620   0.03873   90.00000   0.00000   0.00010   142  143  144     16
   144   0.00000   5.22894   0.15493   0.03873   90.00000   0.00000   0.00010   143  144    0     16
   145   0.00000   5.57753  -0.15493   0.03873   90.00000   0.00000   0.00010     0  145  146     17
   146   0.00000   5.57753  -0.11620   0.03873   90.00000   0.00000   0.00010   145  146  147     17
   147   0.00000   5.57753  -0.07747   0.03873   90.00000   0.00000   0.00010   146  147  148     17
   148   0.00000   5.57753  -0.03873   0.03873   90.00000   0.00000   0.00010   147  148  149     17
   149   0.00000   5.57753   0.00000   0.03873   90.00000   0.00000   0.00010   148  149  150     17
   150   0.00000   5.57753   0.03873   0.03873   90.00000   0.00000   0.00010   149  150  151     17
   151   0.00000   5.57753   0.07747   0.03873   90.00000   0.00000   0.00010   150  151  152     17
   152   0.00000   5.57753   0.11620   0.03873   90.00000   0.00000   0.00010   151  152  153     17
   153   0.00000   5.57753   0.15493   0.03873   90.00000   0.00000   0.00010   152  153    0     17
   154   0.00000   5.92613  -0.15493   0.03873   90.00000   0.00000   0.00010     0  154  155     18
   155   0.00000   5.92613  -0.11620   0.03873   90.00000   0.00000   0.00010   154  155  156     18
   156   0.00000   5.92613  -0.07747   0.03873   90.00000   0.00000   0.00010   155  156  157     18
   157   0.00000   5.92613  -0.03873   0.03873   90.00000   0.00000   0.00010   156  157  158     18
   158   0.00000   5.92613   0.00000   0.03873   90.00000   0.00000   0.00010   157  158  159     18
   159   0.00000   5.92613   0.03873   0.03873   90.00000   0.00000   0.00010   158  159  160     18
   160   0.00000   5.92613   0.07747   0.03873   90.00000   0.00000   0.00010   159  160  161     18
   161   0.00000   5.92613   0.11620   0.03873   90.00000   0.00000   0.00010   160  161  162     18
   162   0.00000   5.92613   0.15493   0.03873   90.00000   0.00000   0.00010   161  162    0     18
   163   0.00000   6.27473  -0.15493   0.03873   90.00000   0.00000   0.00010     0  163  164     19
   164   0.00000   6.27473  -0.11620   0.03873   90.00000   0.00000   0.00010   163  164  165     19
   165   0.00000   6.27473  -0.07747   0.03873   90.00000   0.00000   0.00010   164  165  166     19
   166   0.00000   6.27473  -0.03873   0.03873   90.00000   0.00000   0.00010   165  166  167     19
   167   0.00000   6.27473   0.00000   0.03873   90.00000   0.00000   0.00010   166  167  168     19
   168   0.00000   6.27473   0.03873   0.03873   90.00000   0.00000   0.00010   167  168  169     19
   169   0.00000   6.27473   0.07747   0.03873   90.00000   0.00000   0.00010   168  169  170     19
   170   0.00000   6.27473   0.11620   0.03873   90.00000   0.00000   0.00010   169  170  171     19
   171   0.00000   6.27473   0.15493   0.03873   90.00000   0.00000   0.00010   170  171    0     19
   172   0.00000   6.62332  -0.15493   0.03873   90.00000   0.00000   0.00010     0  172  173     20
   173   0.00000   6.62332  -0.11620   0.03873   90.00000   0.00000   0.00010   172  173  174     20
   174   0.00000   6.62332  -0.07747   0.03873   90.00000   0.00000   0.00010   173  174  175     20
   175   0.00000   6.62332  -0.03873   0.03873   90.00000   0.00000   0.00010   174  175  176     20
   176   0.00000   6.62332   0.00000   0.03873   90.00000   0.00000   0.00010   175  176  177     20
   177   0.00000   6.62332   0.03873   0.03873   90.00000   0.00000   0.00010   176  177  178     20
   178   0.00000   6.62332   0.07747   0.03873   90.00000   0.00000   0.00010   177  178  179     20
   179   0.00000   6.62332   0.11620   0.03873   90.00000   0.00000   0.00010   178  179  180     20
   180   0.00000   6.62332   0.15493   0.03873   90.00000   0.00000   0.00010   179  180    0     20






 ***** DATA CARD NO.  1   LD   4     1     5     5  5.00000E+01  0.00000E+00  0.00000E+00  0.00000E+00  0.00000E+00  0.00000E+00
 ***** DATA CARD NO.  2   LD   4     2     5     5  5.00000E+01  0.00000E+00  0.00000E+00  0.00000E+00  0.00000E+00  0.00000E+00
 ***** DATA CARD NO.  3   LD   4     3     5     5  5.00000E+01  0.00000E+00  0.00000E+00  0.00000E+00  0.00000E+00  0.00000E+00
 ***** DATA CARD NO.  4   LD   4     4     5     5  5.00000E+01  0.00000E+00  0.00000E+00  0.00000E+00  0.00000E+00  0.00000E+00
 ***** DATA CARD NO.  5   LD   4     5     5     5  5.00000E+01  0.00000E+00  0.00000E+00  0.00000E+00  0.00000E+00  0.00000E+00
 ***** DATA CARD NO.  6   LD   4     6     5     5  5.00000E+01  0.00000E+00  0.00000E+00  0.00000E+00  0.00000E+00  0.00000E+00
 ***** DATA CARD NO.  7   LD   4     7     5     5  5.00000E+01  0.00000E+00  0.00000E+00  0.00000E+00  0.00000E+00  0.00000E+00
 ***** DATA CARD NO.  8   LD   4     8     5     5  5.00000E+01  0.00000E+00  0.00000E+00  0.00000E+00  0.00000E+00  0.00000E+00
 ***** DATA CARD NO.  9   LD   4     9     5     5  5.00000E+01  0.00000E+00  0.00000E+00  0.00000E+00  0.00000E+00  0.00000E+00
 ***** DATA CARD NO. 10   LD   4    10     5     5  5.00000E+01  0.00000E+00  0.00000E+00  0.00000E+00  0.00000E+00  0.00000E+00
 ***** DATA CARD NO. 11   LD   4    11     5     5  5.00000E+01  0.00000E+00  0.00000E+00  0.00000E+00  0.00000E+00  0.00000E+00
 ***** DATA CARD NO. 12   LD   4    12     5     5  5.00000E+01  0.00000E+00  0.00000E+00  0.00000E+00  0.00000E+00  0.00000E+00
 ***** DATA CARD NO. 13   LD   4    13     5     5  5.00000E+01  0.00000E+00  0.00000E+00  0.00000E+00  0.00000E+00  0.00000E+00
 ***** DATA CARD NO. 14   LD   4    14     5     5  5.00000E+01  0.00000E+00  0.00000E+00  0.00000E+00  0.00000E+00  0.00000E+00
 ***** DATA CARD NO. 15   LD   4    15     5     5  5.00000E+01  0.00000E+00  0.00000E+00  0.00000E+00  0.00000E+00  0.00000E+00
 ***** DATA CARD NO. 16   LD   4    16     5     5  5.00000E+01  0.00000E+00  0.00000E+00  0.00000E+00  0.00000E+00  0.00000E+00
 ***** DATA CARD NO. 17   LD   4    17     5     5  5.00000E+01  0.00000E+00  0.00000E+00  0.00000E+00  0.00000E+00  0.00000E+00
 ***** DATA CARD NO. 18   LD   4    18     5     5  5.00000E+01  0.00000E+00  0.00000E+00  0.00000E+00  0.00000E+00  0.00000E+00
 ***** DATA CARD NO. 19   LD   4    19     5     5  5.00000E+01  0.00000E+00  0.00000E+00  0.00000E+00  0.00000E+00  0.00000E+00
 ***** DATA CARD NO. 20   LD   4    20     5     5  5.00000E+01  0.00000E+00  0.00000E+00  0.00000E+00  0.00000E+00  0.00000E+00
 ***** DATA CARD NO. 21   GN  -1     0     0     0  0.00000E+00  0.00000E+00  0.00000E+00  0.00000E+00  0.00000E+00  0.00000E+00
 ***** DATA CARD NO. 22   EK   0     0     0     0  0.00000E+00  0.00000E+00  0.00000E+00  0.00000E+00  0.00000E+00  0.00000E+00
 ***** DATA CARD NO. 23   EX   0    15     5     0  1.00000E+00  0.00000E+00  0.00000E+00  0.00000E+00  0.00000E+00  0.00000E+00
 ***** DATA CARD NO. 24   FR   0     0     0     0  4.30000E+02  0.00000E+00  0.00000E+00  0.00000E+00  0.00000E+00  0.00000E+00
 ***** DATA CARD NO. 25   RP   0    37    73  1003 -1.80000E+02  0.00000E+00  5.00000E+00  5.00000E+00  0.00000E+00  0.00000E+00




                                 - - - - - - FREQUENCY - - - - - -

                                    FREQUENCY= 4.3000E+02 MHZ
                                    WAVELENGTH= 6.9721E-01 METERS




                    APPROXIMATE INTEGRATION EMPLOYED FOR SEGMENTS MORE THAN   1.000 WAVELENGTHS APART

                    THE EXTENDED THIN WIRE KERNEL WILL BE USED



                               - - - STRUCTURE IMPEDANCE LOADING - - -


       LOCATION          RESISTANCE   INDUCTANCE  CAPACITANCE       IMPEDANCE (OHMS)     CONDUCTIVITY    TYPE
    ITAG FROM THRU          OHMS        HENRYS       FARADS        REAL      IMAGINARY    MHOS/METER

       1    5    5                                             5.0000E+01                             FIXED IMPEDANCE 

       2    5    5                                             5.0000E+01                             FIXED IMPEDANCE 

       3    5    5                                             5.0000E+01                             FIXED IMPEDANCE 

       4    5    5                                             5.0000E+01                             FIXED IMPEDANCE 

       5    5    5                                             5.0000E+01                             FIXED IMPEDANCE 

       6    5    5                                             5.0000E+01                             FIXED IMPEDANCE 

       7    5    5                                             5.0000E+01                             FIXED IMPEDANCE 

       8    5    5                                             5.0000E+01                             FIXED IMPEDANCE 

       9    5    5                                             5.0000E+01                             FIXED IMPEDANCE 

      10    5    5                                             5.0000E+01                             FIXED IMPEDANCE 

      11    5    5                                             5.0000E+01                             FIXED IMPEDANCE 

      12    5    5                                             5.0000E+01                             FIXED IMPEDANCE 

      13    5    5                                             5.0000E+01                             FIXED IMPEDANCE 

      14    5    5                                             5.0000E+01                             FIXED IMPEDANCE 

      15    5    5                                             5.0000E+01                             FIXED IMPEDANCE 

      16    5    5                                             5.0000E+01                             FIXED IMPEDANCE 

      17    5    5                                             5.0000E+01                             FIXED IMPEDANCE 

      18    5    5                                             5.0000E+01                             FIXED IMPEDANCE 

      19    5    5                                             5.0000E+01                             FIXED IMPEDANCE 

      20    5    5                                             5.0000E+01                             FIXED IMPEDANCE 



                                  - - - ANTENNA ENVIRONMENT - - -

                                            FREE SPACE



                                - - - MATRIX TIMING - - -

                        FILL=    0.031 SEC.,  FACTOR=    0.016 SEC.



                                          - - - ANTENNA INPUT PARAMETERS - - -

   TAG   SEG.    VOLTAGE (VOLTS)         CURRENT (AMPS)         IMPEDANCE (OHMS)        ADMITTANCE (MHOS)      POWER
   NO.   NO.    REAL        IMAG.       REAL        IMAG.       REAL        IMAG.       REAL        IMAG.     (WATTS)
    15   131 1.00000E+00 0.00000E+00 7.30086E-03-1.43919E-03 1.31847E+02 2.59904E+01 7.30086E-03-1.43919E-03 3.65043E-03



                             - - - CURRENTS AND LOCATION - - -

                                 DISTANCES IN WAVELENGTHS


  SEG.  TAG    COORD. OF SEG. CENTER     SEG.            - - - CURRENT (AMPS) - - -
  NO.   NO.     X        Y        Z      LENGTH     REAL        IMAG.       MAG.        PHASE
     1    1   0.0000   0.0000  -0.2222  0.05555  -8.8463E-06  9.9702E-07  8.9023E-06  173.570
     2    1   0.0000   0.0000  -0.1667  0.05555  -2.3827E-05  3.0114E-06  2.4017E-05  172.797
     3    1   0.0000   0.0000  -0.1111  0.05555  -3.5452E-05  4.9914E-06  3.5802E-05  171.986
     4    1   0.0000   0.0000  -0.0556  0.05555  -4.2861E-05  6.7584E-06  4.3390E-05  171.039
     5    1   0.0000   0.0000   0.0000  0.05555  -4.5331E-05  7.8889E-06  4.6013E-05  170.128
     6    1   0.0000   0.0000   0.0556  0.05555  -4.2861E-05  6.7584E-06  4.3390E-05  171.039
     7    1   0.0000   0.0000   0.1111  0.05555  -3.5452E-05  4.9914E-06  3.5802E-05  171.986
     8    1   0.0000   0.0000   0.1667  0.05555  -2.3827E-05  3.0114E-06  2.4017E-05  172.797
     9    1   0.0000   0.0000   0.2222  0.05555  -8.8463E-06  9.9702E-07  8.9023E-06  173.570
    10    2   0.0000   0.5000  -0.2222  0.05555   8.1016E-06 -2.1842E-06  8.3909E-06  -15.089
    11    2   0.0000   0.5000  -0.1667  0.05555   2.1807E-05 -6.1872E-06  2.2667E-05  -15.840
    12    2   0.0000   0.5000  -0.1111  0.05555   3.2405E-05 -9.6825E-06  3.3821E-05  -16.636
    13    2   0.0000   0.5000  -0.0556  0.05555   3.9097E-05 -1.2382E-05  4.1011E-05  -17.573
    14    2   0.0000   0.5000   0.0000  0.05555   4.1254E-05 -1.3788E-05  4.3497E-05  -18.481
    15    2   0.0000   0.5000   0.0556  0.05555   3.9097E-05 -1.2382E-05  4.1011E-05  -17.573
    16    2   0.0000   0.5000   0.1111  0.05555   3.2405E-05 -9.6825E-06  3.3821E-05  -16.636
    17    2   0.0000   0.5000   0.1667  0.05555   2.1807E-05 -6.1872E-06  2.2667E-05  -15.840
    18    2   0.0000   0.5000   0.2222  0.05555   8.1016E-06 -2.1842E-06  8.3909E-06  -15.089
    19    3   0.0000   1.0000  -0.2222  0.05555  -8.3374E-06  2.6181E-06  8.7388E-06  162.567
    20    3   0.0000   1.0000  -0.1667  0.05555  -2.2433E-05  7.3639E-06  2.3610E-05  161.827
    21    3   0.0000   1.0000  -0.1111  0.05555  -3.3319E-05  1.1447E-05  3.5231E-05  161.039
    22    3   0.0000   1.0000  -0.0556  0.05555  -4.0173E-05  1.4537E-05  4.2722E-05  160.106
    23    3   0.0000   1.0000   0.0000  0.05555  -4.2359E-05  1.6091E-05  4.5313E-05  159.200
    24    3   0.0000   1.0000   0.0556  0.05555  -4.0173E-05  1.4537E-05  4.2722E-05  160.106
    25    3   0.0000   1.0000   0.1111  0.05555  -3.3319E-05  1.1447E-05  3.5231E-05  161.039
    26    3   0.0000   1.0000   0.1667  0.05555  -2.2433E-05  7.3639E-06  2.3610E-05  161.827
    27    3   0.0000   1.0000   0.2222  0.05555  -8.3374E-06  2.6181E-06  8.7388E-06  162.567
    28    4   0.0000   1.5000  -0.2222  0.05555   8.9808E-06 -2.9227E-06  9.4444E-06  -18.027
    29    4   0.0000   1.5000  -0.1667  0.05555   2.4160E-05 -8.2085E-06  2.5517E-05  -18.765
    30    4   0.0000   1.5000  -0.1111  0.05555   3.5880E-05 -1.2742E-05  3.8075E-05  -19.552
    31    4   0.0000   1.5000  -0.0556  0.05555   4.3252E-05 -1.6157E-05  4.6171E-05  -20.483
    32    4   0.0000   1.5000   0.0000  0.05555   4.5597E-05 -1.7860E-05  4.8970E-05  -21.390
    33    4   0.0000   1.5000   0.0556  0.05555   4.3252E-05 -1.6157E-05  4.6171E-05  -20.483
    34    4   0.0000   1.5000   0.1111  0.05555   3.5880E-05 -1.2742E-05  3.8075E-05  -19.552
    35    4   0.0000   1.5000   0.1667  0.05555   2.4160E-05 -8.2085E-06  2.5517E-05  -18.765
    36    4   0.0000   1.5000   0.2222  0.05555   8.9808E-06 -2.9227E-06  9.4444E-06  -18.027
    37    5   0.0000   2.0000  -0.2222  0.05555  -9.9668E-06  3.2009E-06  1.0468E-05  162.195
    38    5   0.0000   2.0000  -0.1667  0.05555  -2.6812E-05  8.9946E-06  2.8281E-05  161.455
    39    5   0.0000   2.0000  -0.1111  0.05555  -3.9818E-05  1.3969E-05  4.2198E-05  160.668
    40    5   0.0000   2.0000  -0.0556  0.05555  -4.8002E-05  1.7723E-05  5.1169E-05  159.735
    41    5   0.0000   2.0000   0.0000  0.05555  -5.0608E-05  1.9600E-05  5.4271E-05  158.829
    42    5   0.0000   2.0000   0.0556  0.05555  -4.8002E-05  1.7723E-05  5.1169E-05  159.735
    43    5   0.0000   2.0000   0.1111  0.05555  -3.9818E-05  1.3969E-05  4.2198E-05  160.668
    44    5   0.0000   2.0000   0.1667  0.05555  -2.6812E-05  8.9946E-06  2.8281E-05  161.455
    45    5   0.0000   2.0000   0.2222  0.05555  -9.9668E-06  3.2009E-06  1.0468E-05  162.195
    46    6   0.0000   2.4999  -0.2222  0.05555   1.1346E-05 -3.4795E-06  1.1867E-05  -17.050
    47    6   0.0000   2.4999  -0.1667  0.05555   3.0524E-05 -9.7964E-06  3.2057E-05  -17.794
    48    6   0.0000   2.4999  -0.1111  0.05555   4.5336E-05 -1.5243E-05  4.7830E-05  -18.584
    49    6   0.0000   2.4999  -0.0556  0.05555   5.4664E-05 -1.9377E-05  5.7997E-05  -19.518
    50    6   0.0000   2.4999   0.0000  0.05555   5.7645E-05 -2.1466E-05  6.1512E-05  -20.425
    51    6   0.0000   2.4999   0.0556  0.05555   5.4664E-05 -1.9377E-05  5.7997E-05  -19.518
    52    6   0.0000   2.4999   0.1111  0.05555   4.5336E-05 -1.5243E-05  4.7830E-05  -18.584
    53    6   0.0000   2.4999   0.1667  0.05555   3.0524E-05 -9.7964E-06  3.2057E-05  -17.794
    54    6   0.0000   2.4999   0.2222  0.05555   1.1346E-05 -3.4795E-06  1.1867E-05  -17.050
    55    7   0.0000   2.9999  -0.2222  0.05555  -1.3250E-05  3.7602E-06  1.3773E-05  164.157
    56    7   0.0000   2.9999  -0.1667  0.05555  -3.5652E-05  1.0624E-05  3.7201E-05  163.407
    57    7   0.0000   2.9999  -0.1111  0.05555  -5.2964E-05  1.6584E-05  5.5500E-05  162.613
    58    7   0.0000   2.9999  -0.0556  0.05555  -6.3882E-05  2.1155E-05  6.7294E-05  161.677
    59    7   0.0000   2.9999   0.0000  0.05555  -6.7389E-05  2.3508E-05  7.1372E-05  160.769
    60    7   0.0000   2.9999   0.0556  0.05555  -6.3882E-05  2.1155E-05  6.7294E-05  161.677
    61    7   0.0000   2.9999   0.1111  0.05555  -5.2964E-05  1.6584E-05  5.5500E-05  162.613
    62    7   0.0000   2.9999   0.1667  0.05555  -3.5652E-05  1.0624E-05  3.7201E-05  163.407
    63    7   0.0000   2.9999   0.2222  0.05555  -1.3250E-05  3.7602E-06  1.3773E-05  164.157
    64    8   0.0000   3.4999  -0.2222  0.05555   1.5926E-05 -4.0224E-06  1.6426E-05  -14.174
    65    8   0.0000   3.4999  -0.1667  0.05555   4.2861E-05 -1.1429E-05  4.4359E-05  -14.931
    66    8   0.0000   3.4999  -0.1111  0.05555   6.3693E-05 -1.7939E-05  6.6171E-05  -15.729
    67    8   0.0000   3.4999  -0.0556  0.05555   7.6856E-05 -2.3012E-05  8.0227E-05  -16.668
    68    8   0.0000   3.4999   0.0000  0.05555   8.1114E-05 -2.5695E-05  8.5087E-05  -17.577
    69    8   0.0000   3.4999   0.0556  0.05555   7.6856E-05 -2.3012E-05  8.0227E-05  -16.668
    70    8   0.0000   3.4999   0.1111  0.05555   6.3693E-05 -1.7939E-05  6.6171E-05  -15.729
    71    8   0.0000   3.4999   0.1667  0.05555   4.2861E-05 -1.1429E-05  4.4359E-05  -14.931
    72    8   0.0000   3.4999   0.2222  0.05555   1.5926E-05 -4.0224E-06  1.6426E-05  -14.174
    73    9   0.0000   3.9999  -0.2222  0.05555  -1.9826E-05  4.1977E-06  2.0265E-05  168.045
    74    9   0.0000   3.9999  -0.1667  0.05555  -5.3370E-05  1.2047E-05  5.4713E-05  167.280
    75    9   0.0000   3.9999  -0.1111  0.05555  -7.9340E-05  1.9084E-05  8.1603E-05  166.475
    76    9   0.0000   3.9999  -0.0556  0.05555  -9.5792E-05  2.4715E-05  9.8929E-05  165.533
    77    9   0.0000   3.9999   0.0000  0.05555  -1.0116E-04  2.7821E-05  1.0492E-04  164.623
    78    9   0.0000   3.9999   0.0556  0.05555  -9.5792E-05  2.4715E-05  9.8929E-05  165.533
    79    9   0.0000   3.9999   0.1111  0.05555  -7.9340E-05  1.9084E-05  8.1603E-05  166.475
    80    9   0.0000   3.9999   0.1667  0.05555  -5.3370E-05  1.2047E-05  5.4713E-05  167.280
    81    9   0.0000   3.9999   0.2222  0.05555  -1.9826E-05  4.1977E-06  2.0265E-05  168.045
    82   10   0.0000   4.4999  -0.2222  0.05555   2.5832E-05 -4.0921E-06  2.6154E-05   -9.002
    83   10   0.0000   4.4999  -0.1667  0.05555   6.9561E-05 -1.1987E-05  7.0586E-05   -9.777
    84   10   0.0000   4.4999  -0.1111  0.05555   1.0346E-04 -1.9343E-05  1.0526E-04  -10.589
    85   10   0.0000   4.4999  -0.0556  0.05555   1.2501E-04 -2.5516E-05  1.2759E-04  -11.536
    86   10   0.0000   4.4999   0.0000  0.05555   1.3213E-04 -2.9165E-05  1.3531E-04  -12.447
    87   10   0.0000   4.4999   0.0556  0.05555   1.2501E-04 -2.5516E-05  1.2759E-04  -11.536
    88   10   0.0000   4.4999   0.1111  0.05555   1.0346E-04 -1.9343E-05  1.0526E-04  -10.589
    89   10   0.0000   4.4999   0.1667  0.05555   6.9561E-05 -1.1987E-05  7.0586E-05   -9.777
    90   10   0.0000   4.4999   0.2222  0.05555   2.5832E-05 -4.0921E-06  2.6154E-05   -9.002
    91   11   0.0000   4.9999  -0.2222  0.05555  -3.5861E-05  3.1160E-06  3.5996E-05  175.034
    92   11   0.0000   4.9999  -0.1667  0.05555  -9.6611E-05  9.7360E-06  9.7101E-05  174.245
    93   11   0.0000   4.9999  -0.1111  0.05555  -1.4379E-04  1.6575E-05  1.4474E-04  173.425
    94   11   0.0000   4.9999  -0.0556  0.05555  -1.7391E-04  2.2981E-05  1.7543E-04  172.472
    95   11   0.0000   4.9999   0.0000  0.05555  -1.8401E-04  2.7306E-05  1.8603E-04  171.559
    96   11   0.0000   4.9999   0.0556  0.05555  -1.7391E-04  2.2981E-05  1.7543E-04  172.472
    97   11   0.0000   4.9999   0.1111  0.05555  -1.4379E-04  1.6575E-05  1.4474E-04  173.425
    98   11   0.0000   4.9999   0.1667  0.05555  -9.6611E-05  9.7360E-06  9.7101E-05  174.245
    99   11   0.0000   4.9999   0.2222  0.05555  -3.5861E-05  3.1160E-06  3.5996E-05  175.034
   100   12   0.0000   5.4999  -0.2222  0.05555   5.4784E-05  8.1778E-07  5.4790E-05    0.855
   101   12   0.0000   5.4999  -0.1667  0.05555   1.4768E-04  1.3698E-07  1.4768E-04    0.053
   102   12   0.0000   5.4999  -0.1111  0.05555   2.2000E-04 -2.9871E-06  2.2002E-04   -0.778
   103   12   0.0000   5.4999  -0.0556  0.05555   2.6645E-04 -8.0768E-06  2.6657E-04   -1.736
   104   12   0.0000   5.4999   0.0000  0.05555   2.8235E-04 -1.3076E-05  2.8266E-04   -2.652
   105   12   0.0000   5.4999   0.0556  0.05555   2.6645E-04 -8.0768E-06  2.6657E-04   -1.736
   106   12   0.0000   5.4999   0.1111  0.05555   2.2000E-04 -2.9871E-06  2.2002E-04   -0.778
   107   12   0.0000   5.4999   0.1667  0.05555   1.4768E-04  1.3698E-07  1.4768E-04    0.053
   108   12   0.0000   5.4999   0.2222  0.05555   5.4784E-05  8.1778E-07  5.4790E-05    0.855
   109   13   0.0000   5.9998  -0.2222  0.05555  -9.8695E-05 -1.7518E-05  1.0024E-04 -169.935
   110   13   0.0000   5.9998  -0.1667  0.05555  -2.6620E-04 -4.3417E-05  2.6972E-04 -170.737
   111   13   0.0000   5.9998  -0.1111  0.05555  -3.9707E-04 -5.8840E-05  4.0141E-04 -171.571
   112   13   0.0000   5.9998  -0.0556  0.05555  -4.8192E-04 -6.3167E-05  4.8604E-04 -172.533
   113   13   0.0000   5.9998   0.0000  0.05555  -5.1190E-04 -5.8783E-05  5.1527E-04 -173.449
   114   13   0.0000   5.9998   0.0556  0.05555  -4.8192E-04 -6.3167E-05  4.8604E-04 -172.533
   115   13   0.0000   5.9998   0.1111  0.05555  -3.9707E-04 -5.8840E-05  4.0141E-04 -171.571
   116   13   0.0000   5.9998   0.1667  0.05555  -2.6620E-04 -4.3417E-05  2.6972E-04 -170.737
   117   13   0.0000   5.9998   0.2222  0.05555  -9.8695E-05 -1.7518E-05  1.0024E-04 -169.935
   118   14   0.0000   6.4998  -0.2222  0.05555   2.6519E-04  1.2323E-04  2.9242E-04   24.923
   119   14   0.0000   6.4998  -0.1667  0.05555   7.1472E-04  3.2363E-04  7.8458E-04   24.361
   120   14   0.0000   6.4998  -0.1111  0.05555   1.0669E-03  4.6814E-04  1.1651E-03   23.691
   121   14   0.0000   6.4998  -0.0556  0.05555   1.2986E-03  5.4648E-04  1.4089E-03   22.822
   122   14   0.0000   6.4998   0.0000  0.05555   1.3849E-03  5.5772E-04  1.4930E-03   21.935
   123   14   0.0000   6.4998   0.0556  0.05555   1.2986E-03  5.4648E-04  1.4089E-03   22.822
   124   14   0.0000   6.4998   0.1111  0.05555   1.0669E-03  4.6814E-04  1.1651E-03   23.691
   125   14   0.0000   6.4998   0.1667  0.05555   7.1472E-04  3.2363E-04  7.8458E-04   24.361
   126   14   0.0000   6.4998   0.2222  0.05555   2.6519E-04  1.2323E-04  2.9242E-04   24.923
   127   15   0.0000   6.9998  -0.2222  0.05555   1.4329E-03 -4.0809E-04  1.4899E-03  -15.897
   128   15   0.0000   6.9998  -0.1667  0.05555   3.8507E-03 -1.0338E-03  3.9870E-03  -15.028
   129   15   0.0000   6.9998  -0.1111  0.05555   5.7199E-03 -1.4234E-03  5.8943E-03  -13.975
   130   15   0.0000   6.9998  -0.0556  0.05555   6.9072E-03 -1.5427E-03  7.0774E-03  -12.590
   131   15   0.0000   6.9998   0.0000  0.05555   7.3009E-03 -1.4392E-03  7.4414E-03  -11.152
   132   15   0.0000   6.9998   0.0556  0.05555   6.9072E-03 -1.5427E-03  7.0774E-03  -12.590
   133   15   0.0000   6.9998   0.1111  0.05555   5.7199E-03 -1.4234E-03  5.8943E-03  -13.975
   134   15   0.0000   6.9998   0.1667  0.05555   3.8507E-03 -1.0338E-03  3.9870E-03  -15.028
   135   15   0.0000   6.9998   0.2222  0.05555   1.4329E-03 -4.0809E-04  1.4899E-03  -15.897
   136   16   0.0000   7.4998  -0.2222  0.05555   2.6570E-04  1.2339E-04  2.9295E-04   24.909
   137   16   0.0000   7.4998  -0.1667  0.05555   7.1610E-04  3.2404E-04  7.8600E-04   24.347
   138   16   0.0000   7.4998  -0.1111  0.05555   1.0690E-03  4.6872E-04  1.1672E-03   23.676
   139   16   0.0000   7.4998  -0.0556  0.05555   1.3011E-03  5.4714E-04  1.4115E-03   22.807
   140   16   0.0000   7.4998   0.0000  0.05555   1.3876E-03  5.5837E-04  1.4957E-03   21.921
   141   16   0.0000   7.4998   0.0556  0.05555   1.3011E-03  5.4714E-04  1.4115E-03   22.807
   142   16   0.0000   7.4998   0.1111  0.05555   1.0690E-03  4.6872E-04  1.1672E-03   23.676
   143   16   0.0000   7.4998   0.1667  0.05555   7.1610E-04  3.2404E-04  7.8600E-04   24.347
   144   16   0.0000   7.4998   0.2222  0.05555   2.6570E-04  1.2339E-04  2.9295E-04   24.909
   145   17   0.0000   7.9998  -0.2222  0.05555  -9.9798E-05 -1.7884E-05  1.0139E-04 -169.840
   146   17   0.0000   7.9998  -0.1667  0.05555  -2.6919E-04 -4.4363E-05  2.7282E-04 -170.642
   147   17   0.0000   7.9998  -0.1111  0.05555  -4.0154E-04 -6.0187E-05  4.0603E-04 -171.475
   148   17   0.0000   7.9998  -0.0556  0.05555  -4.8737E-04 -6.4709E-05  4.9165E-04 -172.437
   149   17   0.0000   7.9998   0.0000  0.05555  -5.1771E-04 -6.0326E-05  5.2121E-04 -173.354
   150   17   0.0000   7.9998   0.0556  0.05555  -4.8737E-04 -6.4709E-05  4.9165E-04 -172.437
   151   17   0.0000   7.9998   0.1111  0.05555  -4.0154E-04 -6.0187E-05  4.0603E-04 -171.475
   152   17   0.0000   7.9998   0.1667  0.05555  -2.6919E-04 -4.4363E-05  2.7282E-04 -170.642
   153   17   0.0000   7.9998   0.2222  0.05555  -9.9798E-05 -1.7884E-05  1.0139E-04 -169.840
   154   18   0.0000   8.4998  -0.2222  0.05555   5.6711E-05  1.5502E-06  5.6732E-05    1.566
   155   18   0.0000   8.4998  -0.1667  0.05555   1.5290E-04  2.0397E-06  1.5291E-04    0.764
   156   18   0.0000   8.4998  -0.1111  0.05555   2.2782E-04 -2.6386E-07  2.2782E-04   -0.066
   157   18   0.0000   8.4998  -0.0556  0.05555   2.7598E-04 -4.9353E-06  2.7602E-04   -1.024
   158   18   0.0000   8.4998   0.0000  0.05555   2.9251E-04 -9.9065E-06  2.9268E-04   -1.940
   159   18   0.0000   8.4998   0.0556  0.05555   2.7598E-04 -4.9353E-06  2.7602E-04   -1.024
   160   18   0.0000   8.4998   0.1111  0.05555   2.2782E-04 -2.6386E-07  2.2782E-04   -0.066
   161   18   0.0000   8.4998   0.1667  0.05555   1.5290E-04  2.0397E-06  1.5291E-04    0.764
   162   18   0.0000   8.4998   0.2222  0.05555   5.6711E-05  1.5502E-06  5.6732E-05    1.566
   163   19   0.0000   8.9998  -0.2222  0.05555  -3.9196E-05  1.5147E-06  3.9225E-05  177.787
   164   19   0.0000   8.9998  -0.1667  0.05555  -1.0565E-04  5.5482E-06  1.0580E-04  176.994
   165   19   0.0000   8.9998  -0.1111  0.05555  -1.5734E-04  1.0534E-05  1.5770E-04  176.170
   166   19   0.0000   8.9998  -0.0556  0.05555  -1.9045E-04  1.5939E-05  1.9111E-04  175.216
   167   19   0.0000   8.9998   0.0000  0.05555  -2.0166E-04  2.0120E-05  2.0266E-04  174.302
   168   19   0.0000   8.9998   0.0556  0.05555  -1.9045E-04  1.5939E-05  1.9111E-04  175.216
   169   19   0.0000   8.9998   0.1111  0.05555  -1.5734E-04  1.0534E-05  1.5770E-04  176.170
   170   19   0.0000   8.9998   0.1667  0.05555  -1.0565E-04  5.5482E-06  1.0580E-04  176.994
   171   19   0.0000   8.9998   0.2222  0.05555  -3.9196E-05  1.5147E-06  3.9225E-05  177.787
   172   20   0.0000   9.4998  -0.2222  0.05555   3.2818E-05  9.7584E-07  3.2833E-05    1.703
   173   20   0.0000   9.4998  -0.1667  0.05555   8.8488E-05  1.4115E-06  8.8499E-05    0.914
   174   20   0.0000   9.4998  -0.1111  0.05555   1.3185E-04  2.1036E-07  1.3185E-04    0.091
   175   20   0.0000   9.4998  -0.0556  0.05555   1.5973E-04 -2.4036E-06  1.5975E-04   -0.862
   176   20   0.0000   9.4998   0.0000  0.05555   1.6931E-04 -5.2491E-06  1.6939E-04   -1.776
   177   20   0.0000   9.4998   0.0556  0.05555   1.5973E-04 -2.4036E-06  1.5975E-04   -0.862
   178   20   0.0000   9.4998   0.1111  0.05555   1.3185E-04  2.1036E-07  1.3185E-04    0.091
   179   20   0.0000   9.4998   0.1667  0.05555   8.8488E-05  1.4115E-06  8.8499E-05    0.914
   180   20   0.0000   9.4998   0.2222  0.05555   3.2818E-05  9.7584E-07  3.2833E-05    1.703



                                        - - - POWER BUDGET - - -

                                           INPUT POWER   = 3.6504E-03 WATTS
                                           RADIATED POWER= 2.1328E-03 WATTS
                                           STRUCTURE LOSS= 1.5176E-03 WATTS
                                           NETWORK LOSS  = 0.0000E+00 WATTS
                                           EFFICIENCY    =  58.43 PERCENT



                                                - - - RADIATION PATTERNS - - -

  - - ANGLES - -           - POWER GAINS -       - - - POLARIZATION - - -    - - - E(THETA) - - -    - - - E(PHI) - - -
  THETA     PHI        VERT.   HOR.    TOTAL      AXIAL     TILT   SENSE     MAGNITUDE    PHASE      MAGNITUDE    PHASE 
 DEGREES  DEGREES       DB      DB      DB        RATIO     DEG.              VOLTS/M    DEGREES      VOLTS/M    DEGREES
 -180.00     0.00    -999.99 -999.99 -999.99    0.00000     0.00            4.61673E-12    86.11    0.00000E+00     0.00
 -175.00     0.00     -21.47 -999.99  -21.47    0.00000     0.00  LINEAR    3.94997E-02   -93.89    0.00000E+00     0.00
 -170.00     0.00     -15.43 -999.99  -15.43    0.00000     0.00  LINEAR    7.91593E-02   -93.89    0.00000E+00     0.00
 -165.00     0.00     -11.88 -999.99  -11.88    0.00000     0.00  LINEAR    1.19112E-01   -93.91    0.00000E+00     0.00
 -160.00     0.00      -9.35 -999.99   -9.35    0.00000     0.00  LINEAR    1.59439E-01   -93.92    0.00000E+00     0.00
 -155.00     0.00      -7.38 -999.99   -7.38    0.00000     0.00  LINEAR    2.00145E-01   -93.94    0.00000E+00     0.00
 -150.00     0.00      -5.76 -999.99   -5.76    0.00000     0.00  LINEAR    2.41139E-01   -93.96    0.00000E+00     0.00
 -145.00     0.00      -4.39 -999.99   -4.39    0.00000     0.00  LINEAR    2.82216E-01   -93.98    0.00000E+00     0.00
 -140.00     0.00      -3.22 -999.99   -3.22    0.00000     0.00  LINEAR    3.23048E-01   -94.00    0.00000E+00     0.00
 -135.00     0.00      -2.20 -999.99   -2.20    0.00000     0.00  LINEAR    3.63181E-01   -94.03    0.00000E+00     0.00
 -130.00     0.00      -1.32 -999.99   -1.32    0.00000     0.00  LINEAR    4.02044E-01   -94.05    0.00000E+00     0.00
 -125.00     0.00      -0.55 -999.99   -0.55    0.00000     0.00  LINEAR    4.38959E-01   -94.07    0.00000E+00     0.00
 -120.00     0.00       0.10 -999.99    0.10    0.00000     0.00  LINEAR    4.73178E-01   -94.09    0.00000E+00     0.00
 -115.00     0.00       0.65 -999.99    0.65    0.00000     0.00  LINEAR    5.03911E-01   -94.11    0.00000E+00     0.00
 -110.00     0.00       1.09 -999.99    1.09    0.00000     0.00  LINEAR    5.30372E-01   -94.12    0.00000E+00     0.00
 -105.00     0.00       1.43 -999.99    1.43    0.00000     0.00  LINEAR    5.51830E-01   -94.13    0.00000E+00     0.00
 -100.00     0.00       1.68 -999.99    1.68    0.00000     0.00  LINEAR    5.67651E-01   -94.14    0.00000E+00     0.00
  -95.00     0.00       1.83 -999.99    1.83    0.00000     0.00  LINEAR    5.77350E-01   -94.15    0.00000E+00     0.00
  -90.00     0.00       1.88 -999.99    1.88    0.00000     0.00  LINEAR    5.80618E-01   -94.15    0.00000E+00     0.00
  -85.00     0.00       1.83 -999.99    1.83    0.00000     0.00  LINEAR    5.77350E-01   -94.15    0.00000E+00     0.00
  -80.00     0.00       1.68 -999.99    1.68    0.00000     0.00  LINEAR    5.67651E-01   -94.14    0.00000E+00     0.00
  -75.00     0.00       1.43 -999.99    1.43    0.00000     0.00  LINEAR    5.51830E-01   -94.13    0.00000E+00     0.00
  -70.00     0.00       1.09 -999.99    1.09    0.00000     0.00  LINEAR    5.30372E-01   -94.12    0.00000E+00     0.00
  -65.00     0.00       0.65 -999.99    0.65    0.00000     0.00  LINEAR    5.03911E-01   -94.11    0.00000E+00     0.00
  -60.00     0.00       0.10 -999.99    0.10    0.00000     0.00  LINEAR    4.73178E-01   -94.09    0.00000E+00     0.00
  -55.00     0.00      -0.55 -999.99   -0.55    0.00000     0.00  LINEAR    4.38959E-01   -94.07    0.00000E+00     0.00
  -50.00     0.00      -1.32 -999.99   -1.32    0.00000     0.00  LINEAR    4.02044E-01   -94.05    0.00000E+00     0.00
  -45.00     0.00      -2.20 -999.99   -2.20    0.00000     0.00  LINEAR    3.63181E-01   -94.03    0.00000E+00     0.00
  -40.00     0.00      -3.22 -999.99   -3.22    0.00000     0.00  LINEAR    3.23048E-01   -94.00    0.00000E+00     0.00
  -35.00     0.00      -4.39 -999.99   -4.39    0.00000     0.00  LINEAR    2.82216E-01   -93.98    0.00000E+00     0.00
  -30.00     0.00      -5.76 -999.99   -5.76    0.00000     0.00  LINEAR    2.41139E-01   -93.96    0.00000E+00     0.00
  -25.00     0.00      -7.38 -999.99   -7.38    0.00000     0.00  LINEAR    2.00145E-01   -93.94    0.00000E+00     0.00
  -20.00     0.00      -9.35 -999.99   -9.35    0.00000     0.00  LINEAR    1.59439E-01   -93.92    0.00000E+00     0.00
  -15.00     0.00     -11.88 -999.99  -11.88    0.00000     0.00  LINEAR    1.19112E-01   -93.91    0.00000E+00     0.00
  -10.00     0.00     -15.43 -999.99  -15.43    0.00000     0.00  LINEAR    7.91593E-02   -93.89    0.00000E+00     0.00
   -5.00     0.00     -21.47 -999.99  -21.47    0.00000     0.00  LINEAR    3.94997E-02   -93.89    0.00000E+00     0.00
    0.00     0.00    -999.99 -999.99 -999.99    0.00000     0.00            0.00000E+00     0.00    0.00000E+00     0.00
 -180.00     5.00    -999.99 -999.99 -999.99    0.00000     0.00            4.61673E-12    86.11    0.00000E+00     0.00
 -175.00     5.00     -21.47 -999.99  -21.47    0.00000     0.00  LINEAR    3.95082E-02  -113.15    0.00000E+00     0.00
 -170.00     5.00     -15.43 -999.99  -15.43    0.00000     0.00  LINEAR    7.92000E-02  -132.26    0.00000E+00     0.00
 -165.00     5.00     -11.88 -999.99  -11.88    0.00000     0.00  LINEAR    1.19213E-01  -151.08    0.00000E+00     0.00
 -160.00     5.00      -9.34 -999.99   -9.34    0.00000     0.00  LINEAR    1.59621E-01  -169.45    0.00000E+00     0.00
 -155.00     5.00      -7.36 -999.99   -7.36    0.00000     0.00  LINEAR    2.00408E-01   172.76    0.00000E+00     0.00
 -150.00     5.00      -5.75 -999.99   -5.75    0.00000     0.00  LINEAR    2.41455E-01   155.70    0.00000E+00     0.00
 -145.00     5.00      -4.38 -999.99   -4.38    0.00000     0.00  LINEAR    2.82523E-01   139.48    0.00000E+00     0.00
 -140.00     5.00      -3.21 -999.99   -3.21    0.00000     0.00  LINEAR    3.23254E-01   124.24    0.00000E+00     0.00
 -135.00     5.00      -2.20 -999.99   -2.20    0.00000     0.00  LINEAR    3.63177E-01   110.08    0.00000E+00     0.00
 -130.00     5.00      -1.32 -999.99   -1.32    0.00000     0.00  LINEAR    4.01715E-01    97.10    0.00000E+00     0.00
 -125.00     5.00      -0.57 -999.99   -0.57    0.00000     0.00  LINEAR    4.38205E-01    85.42    0.00000E+00     0.00
 -120.00     5.00       0.08 -999.99    0.08    0.00000     0.00  LINEAR    4.71926E-01    75.10    0.00000E+00     0.00
 -115.00     5.00       0.61 -999.99    0.61    0.00000     0.00  LINEAR    5.02126E-01    66.23    0.00000E+00     0.00
 -110.00     5.00       1.05 -999.99    1.05    0.00000     0.00  LINEAR    5.28066E-01    58.88    0.00000E+00     0.00
 -105.00     5.00       1.39 -999.99    1.39    0.00000     0.00  LINEAR    5.49060E-01    53.11    0.00000E+00     0.00
 -100.00     5.00       1.63 -999.99    1.63    0.00000     0.00  LINEAR    5.64518E-01    48.95    0.00000E+00     0.00
  -95.00     5.00       1.78 -999.99    1.78    0.00000     0.00  LINEAR    5.73984E-01    46.44    0.00000E+00     0.00
  -90.00     5.00       1.82 -999.99    1.82    0.00000     0.00  LINEAR    5.77172E-01    45.60    0.00000E+00     0.00
  -85.00     5.00       1.78 -999.99    1.78    0.00000     0.00  LINEAR    5.73984E-01    46.44    0.00000E+00     0.00
  -80.00     5.00       1.63 -999.99    1.63    0.00000     0.00  LINEAR    5.64518E-01    48.95    0.00000E+00     0.00
  -75.00     5.00       1.39 -999.99    1.39    0.00000     0.00  LINEAR    5.49060E-01    53.11    0.00000E+00     0.00
  -70.00     5.00       1.05 -999.99    1.05    0.00000     0.00  LINEAR    5.28066E-01    58.88    0.00000E+00     0.00
  -65.00     5.00       0.61 -999.99    0.61    0.00000     0.00  LINEAR    5.02126E-01    66.23    0.00000E+00     0.00
  -60.00     5.00       0.08 -999.99    0.08    0.00000     0.00  LINEAR    4.71926E-01    75.10    0.00000E+00     0.00
  -55.00     5.00      -0.57 -999.99   -0.57    0.00000     0.00  LINEAR    4.38205E-01    85.42    0.00000E+00     0.00
  -50.00     5.00      -1.32 -999.99   -1.32    0.00000     0.00  LINEAR    4.01715E-01    97.10    0.00000E+00     0.00
  -45.00     5.00      -2.20 -999.99   -2.20    0.00000     0.00  LINEAR    3.63177E-01   110.08    0.00000E+00     0.00
  -40.00     5.00      -3.21 -999.99   -3.21    0.00000     0.00  LINEAR    3.23254E-01   124.24    0.00000E+00     0.00
  -35.00     5.00      -4.38 -999.99   -4.38    0.00000     0.00  LINEAR    2.82523E-01   139.48    0.00000E+00     0.00
  -30.00     5.00      -5.75 -999.99   -5.75    0.00000     0.00  LINEAR    2.41455E-01   155.70    0.00000E+00     0.00
  -25.00     5.00      -7.36 -999.99   -7.36    0.00000     0.00  LINEAR    2.00408E-01   172.76    0.00000E+00     0.00
  -20.00     5.00      -9.34 -999.99   -9.34    0.00000     0.00  LINEAR    1.59621E-01  -169.45    0.00000E+00     0.00
  -15.00     5.00     -11.88 -999.99  -11.88    0.00000     0.00  LINEAR    1.19213E-01  -151.08    0.00000E+00     0.00
  -10.00     5.00     -15.43 -999.99  -15.43    0.00000     0.00  LINEAR    7.92000E-02  -132.26    0.00000E+00     0.00
   -5.00     5.00     -21.47 -999.99  -21.47    0.00000     0.00  LINEAR    3.95082E-02  -113.15    0.00000E+00     0.00
    0.00     5.00    -999.99 -999.99 -999.99    0.00000     0.00            0.00000E+00     0.00    0.00000E+00     0.00
 -180.00    10.00    -999.99 -999.99 -999.99    0.00000     0.00            4.61673E-12    86.11    0.00000E+00     0.00
 -175.00    10.00     -21.47 -999.99  -21.47    0.00000     0.00  LINEAR    3.95200E-02  -132.25    0.00000E+00     0.00
 -170.00    10.00     -15.42 -999.99  -15.42    0.00000     0.00  LINEAR    7.92499E-02  -170.30    0.00000E+00     0.00
 -165.00    10.00     -11.87 -999.99  -11.87    0.00000     0.00  LINEAR    1.19263E-01   152.30    0.00000E+00     0.00
 -160.00    10.00      -9.35 -999.99   -9.35    0.00000     0.00  LINEAR    1.59478E-01   115.82    0.00000E+00     0.00
 -155.00    10.00      -7.39 -999.99   -7.39    0.00000     0.00  LINEAR    1.99704E-01    80.52    0.00000E+00     0.00
 -150.00    10.00      -5.81 -999.99   -5.81    0.00000     0.00  LINEAR    2.39717E-01    46.63    0.00000E+00     0.00
 -145.00    10.00      -4.48 -999.99   -4.48    0.00000     0.00  LINEAR    2.79311E-01    14.39    0.00000E+00     0.00
 -140.00    10.00      -3.35 -999.99   -3.35    0.00000     0.00  LINEAR    3.18290E-01   -15.98    0.00000E+00     0.00
 -135.00    10.00      -2.36 -999.99   -2.36    0.00000     0.00  LINEAR    3.56400E-01   -44.23    0.00000E+00     0.00
 -130.00    10.00      -1.51 -999.99   -1.51    0.00000     0.00  LINEAR    3.93266E-01   -70.14    0.00000E+00     0.00
 -125.00    10.00      -0.77 -999.99   -0.77    0.00000     0.00  LINEAR    4.28351E-01   -93.48    0.00000E+00     0.00
 -120.00    10.00      -0.13 -999.99   -0.13    0.00000     0.00  LINEAR    4.60975E-01  -114.08    0.00000E+00     0.00
 -115.00    10.00       0.41 -999.99    0.41    0.00000     0.00  LINEAR    4.90365E-01  -131.76    0.00000E+00     0.00
 -110.00    10.00       0.85 -999.99    0.85    0.00000     0.00  LINEAR    5.15730E-01  -146.41    0.00000E+00     0.00
 -105.00    10.00       1.19 -999.99    1.19    0.00000     0.00  LINEAR    5.36329E-01  -157.92    0.00000E+00     0.00
 -100.00    10.00       1.43 -999.99    1.43    0.00000     0.00  LINEAR    5.51530E-01  -166.19    0.00000E+00     0.00
  -95.00    10.00       1.57 -999.99    1.57    0.00000     0.00  LINEAR    5.60850E-01  -171.18    0.00000E+00     0.00
  -90.00    10.00       1.62 -999.99    1.62    0.00000     0.00  LINEAR    5.63991E-01  -172.85    0.00000E+00     0.00
  -85.00    10.00       1.57 -999.99    1.57    0.00000     0.00  LINEAR    5.60850E-01  -171.18    0.00000E+00     0.00
  -80.00    10.00       1.43 -999.99    1.43    0.00000     0.00  LINEAR    5.51530E-01  -166.19    0.00000E+00     0.00
  -75.00    10.00       1.19 -999.99    1.19    0.00000     0.00  LINEAR    5.36329E-01  -157.92    0.00000E+00     0.00
  -70.00    10.00       0.85 -999.99    0.85    0.00000     0.00  LINEAR    5.15730E-01  -146.41    0.00000E+00     0.00
  -65.00    10.00       0.41 -999.99    0.41    0.00000     0.00  LINEAR    4.90365E-01  -131.76    0.00000E+00     0.00
  -60.00    10.00      -0.13 -999.99   -0.13    0.00000     0.00  LINEAR    4.60975E-01  -114.08    0.00000E+00     0.00
  -55.00    10.00      -0.77 -999.99   -0.77    0.00000     0.00  LINEAR    4.28351E-01   -93.48    0.00000E+00     0.00
  -50.00    10.00      -1.51 -999.99   -1.51    0.00000     0.00  LINEAR    3.93266E-01   -70.14    0.00000E+00     0.00
  -45.00    10.00      -2.36 -999.99   -2.36    0.00000     0.00  LINEAR    3.56400E-01   -44.23    0.00000E+00     0.00
  -40.00    10.00      -3.35 -999.99   -3.35    0.00000     0.00  LINEAR    3.18290E-01   -15.98    0.00000E+00     0.00
  -35.00    10.00      -4.48 -999.99   -4.48    0.00000     0.00  LINEAR    2.79311E-01    14.39    0.00000E+00     0.00
  -30.00    10.00      -5.81 -999.99   -5.81    0.00000     0.00  LINEAR    2.39717E-01    46.63    0.00000E+00     0.00
  -25.00    10.00      -7.39 -999.99   -7.39    0.00000     0.00  LINEAR    1.99704E-01    80.52    0.00000E+00     0.00
  -20.00    10.00      -9.35 -999.99   -9.35    0.00000     0.00  LINEAR    1.59478E-01   115.82    0.00000E+00     0.00
  -15.00    10.00     -11.87 -999.99  -11.87    0.00000     0.00  LINEAR    1.19263E-01   152.30    0.00000E+00     0.00
  -10.00    10.00     -15.42 -999.99  -15.42    0.00000     0.00  LINEAR    7.92499E-02  -170.30    0.00000E+00     0.00
   -5.00    10.00     -21.47 -999.99  -21.47    0.00000     0.00  LINEAR    3.95200E-02  -132.25    0.00000E+00     0.00
    0.00    10.00    -999.99 -999.99 -999.99    0.00000     0.00            0.00000E+00     0.00    0.00000E+00     0.00
 -180.00    15.00    -999.99 -999.99 -999.99    0.00000     0.00            4.61673E-12    86.11    0.00000E+00     0.00
 -175.00    15.00     -21.46 -999.99  -21.46    0.00000     0.00  LINEAR    3.95330E-02  -151.06    0.00000E+00     0.00
 -170.00    15.00     -15.42 -999.99  -15.42    0.00000     0.00  LINEAR    7.92590E-02   152.31    0.00000E+00     0.00
 -165.00    15.00     -11.89 -999.99  -11.89    0.00000     0.00  LINEAR    1.19004E-01    96.69    0.00000E+00     0.00
 -160.00    15.00      -9.41 -999.99   -9.41    0.00000     0.00  LINEAR    1.58409E-01    42.39    0.00000E+00     0.00
 -155.00    15.00      -7.50 -999.99   -7.50    0.00000     0.00  LINEAR    1.97357E-01   -10.27    0.00000E+00     0.00
 -150.00    15.00      -5.94 -999.99   -5.94    0.00000     0.00  LINEAR    2.36118E-01   -60.91    0.00000E+00     0.00
 -145.00    15.00      -4.61 -999.99   -4.61    0.00000     0.00  LINEAR    2.75018E-01  -109.08    0.00000E+00     0.00
 -140.00    15.00      -3.46 -999.99   -3.46    0.00000     0.00  LINEAR    3.13992E-01  -154.34    0.00000E+00     0.00
 -135.00    15.00      -2.46 -999.99   -2.46    0.00000     0.00  LINEAR    3.52457E-01   163.70    0.00000E+00     0.00
 -130.00    15.00      -1.59 -999.99   -1.59    0.00000     0.00  LINEAR    3.89539E-01   125.31    0.00000E+00     0.00
 -125.00    15.00      -0.85 -999.99   -0.85    0.00000     0.00  LINEAR    4.24376E-01    90.73    0.00000E+00     0.00
 -120.00    15.00      -0.22 -999.99   -0.22    0.00000     0.00  LINEAR    4.56260E-01    60.19    0.00000E+00     0.00
 -115.00    15.00       0.31 -999.99    0.31    0.00000     0.00  LINEAR    4.84610E-01    33.90    0.00000E+00     0.00
 -110.00    15.00       0.73 -999.99    0.73    0.00000     0.00  LINEAR    5.08883E-01    12.07    0.00000E+00     0.00
 -105.00    15.00       1.06 -999.99    1.06    0.00000     0.00  LINEAR    5.28532E-01    -5.11    0.00000E+00     0.00
 -100.00    15.00       1.29 -999.99    1.29    0.00000     0.00  LINEAR    5.43028E-01   -17.49    0.00000E+00     0.00
  -95.00    15.00       1.44 -999.99    1.44    0.00000     0.00  LINEAR    5.51925E-01   -24.97    0.00000E+00     0.00
  -90.00    15.00       1.48 -999.99    1.48    0.00000     0.00  LINEAR    5.54926E-01   -27.46    0.00000E+00     0.00
  -85.00    15.00       1.44 -999.99    1.44    0.00000     0.00  LINEAR    5.51925E-01   -24.97    0.00000E+00     0.00
  -80.00    15.00       1.29 -999.99    1.29    0.00000     0.00  LINEAR    5.43028E-01   -17.49    0.00000E+00     0.00
  -75.00    15.00       1.06 -999.99    1.06    0.00000     0.00  LINEAR    5.28532E-01    -5.11    0.00000E+00     0.00
  -70.00    15.00       0.73 -999.99    0.73    0.00000     0.00  LINEAR    5.08883E-01    12.07    0.00000E+00     0.00
  -65.00    15.00       0.31 -999.99    0.31    0.00000     0.00  LINEAR    4.84610E-01    33.90    0.00000E+00     0.00
  -60.00    15.00      -0.22 -999.99   -0.22    0.00000     0.00  LINEAR    4.56260E-01    60.19    0.00000E+00     0.00
  -55.00    15.00      -0.85 -999.99   -0.85    0.00000     0.00  LINEAR    4.24376E-01    90.73    0.00000E+00     0.00
  -50.00    15.00      -1.59 -999.99   -1.59    0.00000     0.00  LINEAR    3.89539E-01   125.31    0.00000E+00     0.00
  -45.00    15.00      -2.46 -999.99   -2.46    0.00000     0.00  LINEAR    3.52457E-01   163.70    0.00000E+00     0.00
  -40.00    15.00      -3.46 -999.99   -3.46    0.00000     0.00  LINEAR    3.13992E-01  -154.34    0.00000E+00     0.00
  -35.00    15.00      -4.61 -999.99   -4.61    0.00000     0.00  LINEAR    2.75018E-01  -109.08    0.00000E+00     0.00
  -30.00    15.00      -5.94 -999.99   -5.94    0.00000     0.00  LINEAR    2.36118E-01   -60.91    0.00000E+00     0.00
  -25.00    15.00      -7.50 -999.99   -7.50    0.00000     0.00  LINEAR    1.97357E-01   -10.27    0.00000E+00     0.00
  -20.00    15.00      -9.41 -999.99   -9.41    0.00000     0.00  LINEAR    1.58409E-01    42.39    0.00000E+00     0.00
  -15.00    15.00     -11.89 -999.99  -11.89    0.00000     0.00  LINEAR    1.19004E-01    96.69    0.00000E+00     0.00
  -10.00    15.00     -15.42 -999.99  -15.42    0.00000     0.00  LINEAR    7.92590E-02   152.31    0.00000E+00     0.00
   -5.00    15.00     -21.46 -999.99  -21.46    0.00000     0.00  LINEAR    3.95330E-02  -151.06    0.00000E+00     0.00
    0.00    15.00    -999.99 -999.99 -999.99    0.00000     0.00            0.00000E+00     0.00    0.00000E+00     0.00
 -180.00    20.00    -999.99 -999.99 -999.99    0.00000     0.00            4.61673E-12    86.11    0.00000E+00     0.00
 -175.00    20.00     -21.46 -999.99  -21.46    0.00000     0.00  LINEAR    3.95444E-02  -169.42    0.00000E+00     0.00
 -170.00    20.00     -15.43 -999.99  -15.43    0.00000     0.00  LINEAR    7.91778E-02   115.85    0.00000E+00     0.00
 -165.00    20.00     -11.94 -999.99  -11.94    0.00000     0.00  LINEAR    1.18342E-01    42.41    0.00000E+00     0.00
 -160.00    20.00      -9.50 -999.99   -9.50    0.00000     0.00  LINEAR    1.56775E-01   -29.44    0.00000E+00     0.00
 -155.00    20.00      -7.59 -999.99   -7.59    0.00000     0.00  LINEAR    1.95192E-01   -99.16    0.00000E+00     0.00
 -150.00    20.00      -6.01 -999.99   -6.01    0.00000     0.00  LINEAR    2.34262E-01  -166.00    0.00000E+00     0.00
 -145.00    20.00      -4.66 -999.99   -4.66    0.00000     0.00  LINEAR    2.73500E-01   130.64    0.00000E+00     0.00
 -140.00    20.00      -3.52 -999.99   -3.52    0.00000     0.00  LINEAR    3.11796E-01    71.10    0.00000E+00     0.00
 -135.00    20.00      -2.56 -999.99   -2.56    0.00000     0.00  LINEAR    3.48578E-01    15.62    0.00000E+00     0.00
 -130.00    20.00      -1.72 -999.99   -1.72    0.00000     0.00  LINEAR    3.83965E-01   -35.43    0.00000E+00     0.00
 -125.00    20.00      -0.98 -999.99   -0.98    0.00000     0.00  LINEAR    4.18008E-01   -81.57    0.00000E+00     0.00
 -120.00    20.00      -0.34 -999.99   -0.34    0.00000     0.00  LINEAR    4.50115E-01  -122.35    0.00000E+00     0.00
 -115.00    20.00       0.21 -999.99    0.21    0.00000     0.00  LINEAR    4.79191E-01  -157.39    0.00000E+00     0.00
 -110.00    20.00       0.65 -999.99    0.65    0.00000     0.00  LINEAR    5.04118E-01   173.60    0.00000E+00     0.00
 -105.00    20.00       0.99 -999.99    0.99    0.00000     0.00  LINEAR    5.24071E-01   150.82    0.00000E+00     0.00
 -100.00    20.00       1.22 -999.99    1.22    0.00000     0.00  LINEAR    5.38558E-01   134.43    0.00000E+00     0.00
  -95.00    20.00       1.36 -999.99    1.36    0.00000     0.00  LINEAR    5.47327E-01   124.54    0.00000E+00     0.00
  -90.00    20.00       1.41 -999.99    1.41    0.00000     0.00  LINEAR    5.50261E-01   121.24    0.00000E+00     0.00
  -85.00    20.00       1.36 -999.99    1.36    0.00000     0.00  LINEAR    5.47327E-01   124.54    0.00000E+00     0.00
  -80.00    20.00       1.22 -999.99    1.22    0.00000     0.00  LINEAR    5.38558E-01   134.43    0.00000E+00     0.00
  -75.00    20.00       0.99 -999.99    0.99    0.00000     0.00  LINEAR    5.24071E-01   150.82    0.00000E+00     0.00
  -70.00    20.00       0.65 -999.99    0.65    0.00000     0.00  LINEAR    5.04118E-01   173.60    0.00000E+00     0.00
  -65.00    20.00       0.21 -999.99    0.21    0.00000     0.00  LINEAR    4.79191E-01  -157.39    0.00000E+00     0.00
  -60.00    20.00      -0.34 -999.99   -0.34    0.00000     0.00  LINEAR    4.50115E-01  -122.35    0.00000E+00     0.00
  -55.00    20.00      -0.98 -999.99   -0.98    0.00000     0.00  LINEAR    4.18008E-01   -81.57    0.00000E+00     0.00
  -50.00    20.00      -1.72 -999.99   -1.72    0.00000     0.00  LINEAR    3.83965E-01   -35.43    0.00000E+00     0.00
  -45.00    20.00      -2.56 -999.99   -2.56    0.00000     0.00  LINEAR    3.48578E-01    15.62    0.00000E+00     0.00
  -40.00    20.00      -3.52 -999.99   -3.52    0.00000     0.00  LINEAR    3.11796E-01    71.10    0.00000E+00     0.00
  -35.00    20.00      -4.66 -999.99   -4.66    0.00000     0.00  LINEAR    2.73500E-01   130.64    0.00000E+00     0.00
  -30.00    20.00      -6.01 -999.99   -6.01    0.00000     0.00  LINEAR    2.34262E-01  -166.00    0.00000E+00     0.00
  -25.00    20.00      -7.59 -999.99   -7.59    0.00000     0.00  LINEAR    1.95192E-01   -99.16    0.00000E+00     0.00
  -20.00    20.00      -9.50 -999.99   -9.50    0.00000     0.00  LINEAR    1.56775E-01   -29.44    0.00000E+00     0.00
  -15.00    20.00     -11.94 -999.99  -11.94    0.00000     0.00  LINEAR    1.18342E-01    42.41    0.00000E+00     0.00
  -10.00    20.00     -15.43 -999.99  -15.43    0.00000     0.00  LINEAR    7.91778E-02   115.85    0.00000E+00     0.00
   -5.00    20.00     -21.46 -999.99  -21.46    0.00000     0.00  LINEAR    3.95444E-02  -169.42    0.00000E+00     0.00
    0.00    20.00    -999.99 -999.99 -999.99    0.00000     0.00            0.00000E+00     0.00    0.00000E+00     0.00
 -180.00    25.00    -999.99 -999.99 -999.99    0.00000     0.00            4.61673E-12    86.11    0.00000E+00     0.00
 -175.00    25.00     -21.46 -999.99  -21.46    0.00000     0.00  LINEAR    3.95511E-02   172.81    0.00000E+00     0.00
 -170.00    25.00     -15.45 -999.99  -15.45    0.00000     0.00  LINEAR    7.89834E-02    80.57    0.00000E+00     0.00
 -165.00    25.00     -12.00 -999.99  -12.00    0.00000     0.00  LINEAR    1.17451E-01   -10.23    0.00000E+00     0.00
 -160.00    25.00      -9.57 -999.99   -9.57    0.00000     0.00  LINEAR    1.55491E-01   -99.14    0.00000E+00     0.00
 -155.00    25.00      -7.63 -999.99   -7.63    0.00000     0.00  LINEAR    1.94300E-01   174.88    0.00000E+00     0.00
 -150.00    25.00      -6.05 -999.99   -6.05    0.00000     0.00  LINEAR    2.33146E-01    92.62    0.00000E+00     0.00
 -145.00    25.00      -4.75 -999.99   -4.75    0.00000     0.00  LINEAR    2.70822E-01    14.26    0.00000E+00     0.00
 -140.00    25.00      -3.63 -999.99   -3.63    0.00000     0.00  LINEAR    3.07962E-01   -59.87    0.00000E+00     0.00
 -135.00    25.00      -2.63 -999.99   -2.63    0.00000     0.00  LINEAR    3.45428E-01  -128.99    0.00000E+00     0.00
 -130.00    25.00      -1.76 -999.99   -1.76    0.00000     0.00  LINEAR    3.82040E-01   167.72    0.00000E+00     0.00
 -125.00    25.00      -1.03 -999.99   -1.03    0.00000     0.00  LINEAR    4.15511E-01   110.75    0.00000E+00     0.00
 -120.00    25.00      -0.44 -999.99   -0.44    0.00000     0.00  LINEAR    4.44521E-01    60.40    0.00000E+00     0.00
 -115.00    25.00       0.02 -999.99    0.02    0.00000     0.00  LINEAR    4.69076E-01    17.01    0.00000E+00     0.00
 -110.00    25.00       0.39 -999.99    0.39    0.00000     0.00  LINEAR    4.89567E-01   -19.06    0.00000E+00     0.00
 -105.00    25.00       0.68 -999.99    0.68    0.00000     0.00  LINEAR    5.06058E-01   -47.46    0.00000E+00     0.00
 -100.00    25.00       0.89 -999.99    0.89    0.00000     0.00  LINEAR    5.18250E-01   -67.91    0.00000E+00     0.00
  -95.00    25.00       1.01 -999.99    1.01    0.00000     0.00  LINEAR    5.25753E-01   -80.24    0.00000E+00     0.00
  -90.00    25.00       1.06 -999.99    1.06    0.00000     0.00  LINEAR    5.28287E-01   -84.36    0.00000E+00     0.00
  -85.00    25.00       1.01 -999.99    1.01    0.00000     0.00  LINEAR    5.25753E-01   -80.24    0.00000E+00     0.00
  -80.00    25.00       0.89 -999.99    0.89    0.00000     0.00  LINEAR    5.18250E-01   -67.91    0.00000E+00     0.00
  -75.00    25.00       0.68 -999.99    0.68    0.00000     0.00  LINEAR    5.06058E-01   -47.46    0.00000E+00     0.00
  -70.00    25.00       0.39 -999.99    0.39    0.00000     0.00  LINEAR    4.89567E-01   -19.06    0.00000E+00     0.00
  -65.00    25.00       0.02 -999.99    0.02    0.00000     0.00  LINEAR    4.69076E-01    17.01    0.00000E+00     0.00
  -60.00    25.00      -0.44 -999.99   -0.44    0.00000     0.00  LINEAR    4.44521E-01    60.40    0.00000E+00     0.00
  -55.00    25.00      -1.03 -999.99   -1.03    0.00000     0.00  LINEAR    4.15511E-01   110.75    0.00000E+00     0.00
  -50.00    25.00      -1.76 -999.99   -1.76    0.00000     0.00  LINEAR    3.82040E-01   167.72    0.00000E+00     0.00
  -45.00    25.00      -2.63 -999.99   -2.63    0.00000     0.00  LINEAR    3.45428E-01  -128.99    0.00000E+00     0.00
  -40.00    25.00      -3.63 -999.99   -3.63    0.00000     0.00  LINEAR    3.07962E-01   -59.87    0.00000E+00     0.00
  -35.00    25.00      -4.75 -999.99   -4.75    0.00000     0.00  LINEAR    2.70822E-01    14.26    0.00000E+00     0.00
  -30.00    25.00      -6.05 -999.99   -6.05    0.00000     0.00  LINEAR    2.33146E-01    92.62    0.00000E+00     0.00
  -25.00    25.00      -7.63 -999.99   -7.63    0.00000     0.00  LINEAR    1.94300E-01   174.88    0.00000E+00     0.00
  -20.00    25.00      -9.57 -999.99   -9.57    0.00000     0.00  LINEAR    1.55491E-01   -99.14    0.00000E+00     0.00
  -15.00    25.00     -12.00 -999.99  -12.00    0.00000     0.00  LINEAR    1.17451E-01   -10.23    0.00000E+00     0.00
  -10.00    25.00     -15.45 -999.99  -15.45    0.00000     0.00  LINEAR    7.89834E-02    80.57    0.00000E+00     0.00
   -5.00    25.00     -21.46 -999.99  -21.46    0.00000     0.00  LINEAR    3.95511E-02   172.81    0.00000E+00     0.00
    0.00    25.00    -999.99 -999.99 -999.99    0.00000     0.00            0.00000E+00     0.00    0.00000E+00     0.00
 -180.00    30.00    -999.99 -999.99 -999.99    0.00000     0.00            4.61673E-12    86.11    0.00000E+00     0.00
 -175.00    30.00     -21.46 -999.99  -21.46    0.00000     0.00  LINEAR    3.95506E-02   155.77    0.00000E+00     0.00
 -170.00    30.00     -15.48 -999.99  -15.48    0.00000     0.00  LINEAR    7.86904E-02    46.70    0.00000E+00     0.00
 -165.00    30.00     -12.07 -999.99  -12.07    0.00000     0.00  LINEAR    1.16629E-01   -60.85    0.00000E+00     0.00
 -160.00    30.00      -9.60 -999.99   -9.60    0.00000     0.00  LINEAR    1.54888E-01  -165.96    0.00000E+00     0.00
 -155.00    30.00      -7.67 -999.99   -7.67    0.00000     0.00  LINEAR    1.93509E-01    92.64    0.00000E+00     0.00
 -150.00    30.00      -6.13 -999.99   -6.13    0.00000     0.00  LINEAR    2.30938E-01    -4.92    0.00000E+00     0.00
 -145.00    30.00      -4.82 -999.99   -4.82    0.00000     0.00  LINEAR    2.68566E-01   -98.31    0.00000E+00     0.00
 -140.00    30.00      -3.66 -999.99   -3.66    0.00000     0.00  LINEAR    3.07011E-01   173.73    0.00000E+00     0.00
 -135.00    30.00      -2.70 -999.99   -2.70    0.00000     0.00  LINEAR    3.42947E-01    92.10    0.00000E+00     0.00
 -130.00    30.00      -1.94 -999.99   -1.94    0.00000     0.00  LINEAR    3.74206E-01    17.08    0.00000E+00     0.00
 -125.00    30.00      -1.31 -999.99   -1.31    0.00000     0.00  LINEAR    4.02166E-01   -50.86    0.00000E+00     0.00
 -120.00    30.00      -0.77 -999.99   -0.77    0.00000     0.00  LINEAR    4.28201E-01  -110.90    0.00000E+00     0.00
 -115.00    30.00      -0.31 -999.99   -0.31    0.00000     0.00  LINEAR    4.51602E-01  -162.36    0.00000E+00     0.00
 -110.00    30.00       0.06 -999.99    0.06    0.00000     0.00  LINEAR    4.70990E-01   155.16    0.00000E+00     0.00
 -105.00    30.00       0.33 -999.99    0.33    0.00000     0.00  LINEAR    4.85747E-01   121.86    0.00000E+00     0.00
 -100.00    30.00       0.51 -999.99    0.51    0.00000     0.00  LINEAR    4.95985E-01    97.90    0.00000E+00     0.00
  -95.00    30.00       0.61 -999.99    0.61    0.00000     0.00  LINEAR    5.02004E-01    83.46    0.00000E+00     0.00
  -90.00    30.00       0.65 -999.99    0.65    0.00000     0.00  LINEAR    5.03993E-01    78.63    0.00000E+00     0.00
  -85.00    30.00       0.61 -999.99    0.61    0.00000     0.00  LINEAR    5.02004E-01    83.46    0.00000E+00     0.00
  -80.00    30.00       0.51 -999.99    0.51    0.00000     0.00  LINEAR    4.95985E-01    97.90    0.00000E+00     0.00
  -75.00    30.00       0.33 -999.99    0.33    0.00000     0.00  LINEAR    4.85747E-01   121.86    0.00000E+00     0.00
  -70.00    30.00       0.06 -999.99    0.06    0.00000     0.00  LINEAR    4.70990E-01   155.16    0.00000E+00     0.00
  -65.00    30.00      -0.31 -999.99   -0.31    0.00000     0.00  LINEAR    4.51602E-01  -162.36    0.00000E+00     0.00
  -60.00    30.00      -0.77 -999.99   -0.77    0.00000     0.00  LINEAR    4.28201E-01  -110.90    0.00000E+00     0.00
  -55.00    30.00      -1.31 -999.99   -1.31    0.00000     0.00  LINEAR    4.02166E-01   -50.86    0.00000E+00     0.00
  -50.00    30.00      -1.94 -999.99   -1.94    0.00000     0.00  LINEAR    3.74206E-01    17.08    0.00000E+00     0.00
  -45.00    30.00      -2.70 -999.99   -2.70    0.00000     0.00  LINEAR    3.42947E-01    92.10    0.00000E+00     0.00
  -40.00    30.00      -3.66 -999.99   -3.66    0.00000     0.00  LINEAR    3.07011E-01   173.73    0.00000E+00     0.00
  -35.00    30.00      -4.82 -999.99   -4.82    0.00000     0.00  LINEAR    2.68566E-01   -98.31    0.00000E+00     0.00
  -30.00    30.00      -6.13 -999.99   -6.13    0.00000     0.00  LINEAR    2.30938E-01    -4.92    0.00000E+00     0.00
  -25.00    30.00      -7.67 -999.99   -7.67    0.00000     0.00  LINEAR    1.93509E-01    92.64    0.00000E+00     0.00
  -20.00    30.00      -9.60 -999.99   -9.60    0.00000     0.00  LINEAR    1.54888E-01  -165.96    0.00000E+00     0.00
  -15.00    30.00     -12.07 -999.99  -12.07    0.00000     0.00  LINEAR    1.16629E-01   -60.85    0.00000E+00     0.00
  -10.00    30.00     -15.48 -999.99  -15.48    0.00000     0.00  LINEAR    7.86904E-02    46.70    0.00000E+00     0.00
   -5.00    30.00     -21.46 -999.99  -21.46    0.00000     0.00  LINEAR    3.95506E-02   155.77    0.00000E+00     0.00
    0.00    30.00    -999.99 -999.99 -999.99    0.00000     0.00            0.00000E+00     0.00    0.00000E+00     0.00
 -180.00    35.00    -999.99 -999.99 -999.99    0.00000     0.00            4.61673E-12    86.11    0.00000E+00     0.00
 -175.00    35.00     -21.46 -999.99  -21.46    0.00000     0.00  LINEAR    3.95414E-02   139.57    0.00000E+00     0.00
 -170.00    35.00     -15.52 -999.99  -15.52    0.00000     0.00  LINEAR    7.83419E-02    14.47    0.00000E+00     0.00
 -165.00    35.00     -12.11 -999.99  -12.11    0.00000     0.00  LINEAR    1.16069E-01  -109.00    0.00000E+00     0.00
 -160.00    35.00      -9.62 -999.99   -9.62    0.00000     0.00  LINEAR    1.54509E-01   130.70    0.00000E+00     0.00
 -155.00    35.00      -7.73 -999.99   -7.73    0.00000     0.00  LINEAR    1.92061E-01    14.30    0.00000E+00     0.00
 -150.00    35.00      -6.19 -999.99   -6.19    0.00000     0.00  LINEAR    2.29472E-01   -98.28    0.00000E+00     0.00
 -145.00    35.00      -4.84 -999.99   -4.84    0.00000     0.00  LINEAR    2.68011E-01   154.48    0.00000E+00     0.00
 -140.00    35.00      -3.77 -999.99   -3.77    0.00000     0.00  LINEAR    3.03036E-01    53.66    0.00000E+00     0.00
 -135.00    35.00      -2.94 -999.99   -2.94    0.00000     0.00  LINEAR    3.33475E-01   -40.58    0.00000E+00     0.00
 -130.00    35.00      -2.21 -999.99   -2.21    0.00000     0.00  LINEAR    3.62655E-01  -127.15    0.00000E+00     0.00
[...]
  -70.00   340.00       0.67 -999.99    0.67    0.00000     0.00  LINEAR    5.05602E-01    -7.07    0.00000E+00     0.00
  -65.00   340.00       0.24 -999.99    0.24    0.00000     0.00  LINEAR    4.80784E-01   -35.72    0.00000E+00     0.00
  -60.00   340.00      -0.30 -999.99   -0.30    0.00000     0.00  LINEAR    4.51766E-01   -70.33    0.00000E+00     0.00
  -55.00   340.00      -0.95 -999.99   -0.95    0.00000     0.00  LINEAR    4.19581E-01  -110.63    0.00000E+00     0.00
  -50.00   340.00      -1.69 -999.99   -1.69    0.00000     0.00  LINEAR    3.85250E-01  -156.26    0.00000E+00     0.00
  -45.00   340.00      -2.54 -999.99   -2.54    0.00000     0.00  LINEAR    3.49385E-01   153.23    0.00000E+00     0.00
  -40.00   340.00      -3.52 -999.99   -3.52    0.00000     0.00  LINEAR    3.12076E-01    98.28    0.00000E+00     0.00
  -35.00   340.00      -4.67 -999.99   -4.67    0.00000     0.00  LINEAR    2.73377E-01    39.25    0.00000E+00     0.00
  -30.00   340.00      -6.02 -999.99   -6.02    0.00000     0.00  LINEAR    2.33934E-01   -23.61    0.00000E+00     0.00
  -25.00   340.00      -7.61 -999.99   -7.61    0.00000     0.00  LINEAR    1.94804E-01   -89.96    0.00000E+00     0.00
  -20.00   340.00      -9.52 -999.99   -9.52    0.00000     0.00  LINEAR    1.56400E-01  -159.22    0.00000E+00     0.00
  -15.00   340.00     -11.96 -999.99  -11.96    0.00000     0.00  LINEAR    1.18043E-01   129.31    0.00000E+00     0.00
  -10.00   340.00     -15.45 -999.99  -15.45    0.00000     0.00  LINEAR    7.90087E-02    56.15    0.00000E+00     0.00
   -5.00   340.00     -21.47 -999.99  -21.47    0.00000     0.00  LINEAR    3.94964E-02   -18.41    0.00000E+00     0.00
    0.00   340.00    -999.99 -999.99 -999.99    0.00000     0.00            0.00000E+00     0.00    0.00000E+00     0.00
 -180.00   345.00    -999.99 -999.99 -999.99    0.00000     0.00            4.61673E-12    86.11    0.00000E+00     0.00
 -175.00   345.00     -21.47 -999.99  -21.47    0.00000     0.00  LINEAR    3.94961E-02   -36.75    0.00000E+00     0.00
 -170.00   345.00     -15.44 -999.99  -15.44    0.00000     0.00  LINEAR    7.91210E-02    19.78    0.00000E+00     0.00
 -165.00   345.00     -11.91 -999.99  -11.91    0.00000     0.00  LINEAR    1.18730E-01    75.23    0.00000E+00     0.00
 -160.00   345.00      -9.43 -999.99   -9.43    0.00000     0.00  LINEAR    1.58008E-01   129.30    0.00000E+00     0.00
 -155.00   345.00      -7.52 -999.99   -7.52    0.00000     0.00  LINEAR    1.96869E-01  -178.33    0.00000E+00     0.00
 -150.00   345.00      -5.96 -999.99   -5.96    0.00000     0.00  LINEAR    2.35588E-01  -128.01    0.00000E+00     0.00
 -145.00   345.00      -4.63 -999.99   -4.63    0.00000     0.00  LINEAR    2.74486E-01   -80.19    0.00000E+00     0.00
 -140.00   345.00      -3.48 -999.99   -3.48    0.00000     0.00  LINEAR    3.13507E-01   -35.29    0.00000E+00     0.00
 -135.00   345.00      -2.47 -999.99   -2.47    0.00000     0.00  LINEAR    3.52098E-01     6.33    0.00000E+00     0.00
 -130.00   345.00      -1.59 -999.99   -1.59    0.00000     0.00  LINEAR    3.89406E-01    44.40    0.00000E+00     0.00
 -125.00   345.00      -0.84 -999.99   -0.84    0.00000     0.00  LINEAR    4.24562E-01    78.66    0.00000E+00     0.00
 -120.00   345.00      -0.21 -999.99   -0.21    0.00000     0.00  LINEAR    4.56818E-01   108.92    0.00000E+00     0.00
 -115.00   345.00       0.32 -999.99    0.32    0.00000     0.00  LINEAR    4.85541E-01   134.94    0.00000E+00     0.00
 -110.00   345.00       0.75 -999.99    0.75    0.00000     0.00  LINEAR    5.10142E-01   156.54    0.00000E+00     0.00
 -105.00   345.00       1.08 -999.99    1.08    0.00000     0.00  LINEAR    5.30048E-01   173.54    0.00000E+00     0.00
 -100.00   345.00       1.32 -999.99    1.32    0.00000     0.00  LINEAR    5.44724E-01  -174.22    0.00000E+00     0.00
  -95.00   345.00       1.46 -999.99    1.46    0.00000     0.00  LINEAR    5.53725E-01  -166.83    0.00000E+00     0.00
  -90.00   345.00       1.51 -999.99    1.51    0.00000     0.00  LINEAR    5.56759E-01  -164.36    0.00000E+00     0.00
  -85.00   345.00       1.46 -999.99    1.46    0.00000     0.00  LINEAR    5.53725E-01  -166.83    0.00000E+00     0.00
  -80.00   345.00       1.32 -999.99    1.32    0.00000     0.00  LINEAR    5.44724E-01  -174.22    0.00000E+00     0.00
  -75.00   345.00       1.08 -999.99    1.08    0.00000     0.00  LINEAR    5.30048E-01   173.54    0.00000E+00     0.00
  -70.00   345.00       0.75 -999.99    0.75    0.00000     0.00  LINEAR    5.10142E-01   156.54    0.00000E+00     0.00
  -65.00   345.00       0.32 -999.99    0.32    0.00000     0.00  LINEAR    4.85541E-01   134.94    0.00000E+00     0.00
  -60.00   345.00      -0.21 -999.99   -0.21    0.00000     0.00  LINEAR    4.56818E-01   108.92    0.00000E+00     0.00
  -55.00   345.00      -0.84 -999.99   -0.84    0.00000     0.00  LINEAR    4.24562E-01    78.66    0.00000E+00     0.00
  -50.00   345.00      -1.59 -999.99   -1.59    0.00000     0.00  LINEAR    3.89406E-01    44.40    0.00000E+00     0.00
  -45.00   345.00      -2.47 -999.99   -2.47    0.00000     0.00  LINEAR    3.52098E-01     6.33    0.00000E+00     0.00
  -40.00   345.00      -3.48 -999.99   -3.48    0.00000     0.00  LINEAR    3.13507E-01   -35.29    0.00000E+00     0.00
  -35.00   345.00      -4.63 -999.99   -4.63    0.00000     0.00  LINEAR    2.74486E-01   -80.19    0.00000E+00     0.00
  -30.00   345.00      -5.96 -999.99   -5.96    0.00000     0.00  LINEAR    2.35588E-01  -128.01    0.00000E+00     0.00
  -25.00   345.00      -7.52 -999.99   -7.52    0.00000     0.00  LINEAR    1.96869E-01  -178.33    0.00000E+00     0.00
  -20.00   345.00      -9.43 -999.99   -9.43    0.00000     0.00  LINEAR    1.58008E-01   129.30    0.00000E+00     0.00
  -15.00   345.00     -11.91 -999.99  -11.91    0.00000     0.00  LINEAR    1.18730E-01    75.23    0.00000E+00     0.00
  -10.00   345.00     -15.44 -999.99  -15.44    0.00000     0.00  LINEAR    7.91210E-02    19.78    0.00000E+00     0.00
   -5.00   345.00     -21.47 -999.99  -21.47    0.00000     0.00  LINEAR    3.94961E-02   -36.75    0.00000E+00     0.00
    0.00   345.00    -999.99 -999.99 -999.99    0.00000     0.00            0.00000E+00     0.00    0.00000E+00     0.00
 -180.00   350.00    -999.99 -999.99 -999.99    0.00000     0.00            4.61673E-12    86.11    0.00000E+00     0.00
 -175.00   350.00     -21.47 -999.99  -21.47    0.00000     0.00  LINEAR    3.94949E-02   -55.54    0.00000E+00     0.00
 -170.00   350.00     -15.43 -999.99  -15.43    0.00000     0.00  LINEAR    7.91525E-02   -17.55    0.00000E+00     0.00
 -165.00   350.00     -11.89 -999.99  -11.89    0.00000     0.00  LINEAR    1.19054E-01    19.77    0.00000E+00     0.00
 -160.00   350.00      -9.37 -999.99   -9.37    0.00000     0.00  LINEAR    1.59135E-01    56.12    0.00000E+00     0.00
 -155.00   350.00      -7.42 -999.99   -7.42    0.00000     0.00  LINEAR    1.99221E-01    91.28    0.00000E+00     0.00
 -150.00   350.00      -5.83 -999.99   -5.83    0.00000     0.00  LINEAR    2.39107E-01   125.00    0.00000E+00     0.00
 -145.00   350.00      -4.50 -999.99   -4.50    0.00000     0.00  LINEAR    2.78599E-01   157.06    0.00000E+00     0.00
 -140.00   350.00      -3.37 -999.99   -3.37    0.00000     0.00  LINEAR    3.17501E-01  -172.77    0.00000E+00     0.00
 -135.00   350.00      -2.38 -999.99   -2.38    0.00000     0.00  LINEAR    3.55557E-01  -144.73    0.00000E+00     0.00
 -130.00   350.00      -1.53 -999.99   -1.53    0.00000     0.00  LINEAR    3.92389E-01  -119.03    0.00000E+00     0.00
 -125.00   350.00      -0.78 -999.99   -0.78    0.00000     0.00  LINEAR    4.27456E-01   -95.88    0.00000E+00     0.00
 -120.00   350.00      -0.15 -999.99   -0.15    0.00000     0.00  LINEAR    4.60077E-01   -75.46    0.00000E+00     0.00
 -115.00   350.00       0.39 -999.99    0.39    0.00000     0.00  LINEAR    4.89479E-01   -57.92    0.00000E+00     0.00
 -110.00   350.00       0.83 -999.99    0.83    0.00000     0.00  LINEAR    5.14868E-01   -43.41    0.00000E+00     0.00
 -105.00   350.00       1.17 -999.99    1.17    0.00000     0.00  LINEAR    5.35496E-01   -32.01    0.00000E+00     0.00
 -100.00   350.00       1.42 -999.99    1.42    0.00000     0.00  LINEAR    5.50725E-01   -23.81    0.00000E+00     0.00
  -95.00   350.00       1.56 -999.99    1.56    0.00000     0.00  LINEAR    5.60065E-01   -18.86    0.00000E+00     0.00
  -90.00   350.00       1.61 -999.99    1.61    0.00000     0.00  LINEAR    5.63213E-01   -17.21    0.00000E+00     0.00
  -85.00   350.00       1.56 -999.99    1.56    0.00000     0.00  LINEAR    5.60065E-01   -18.86    0.00000E+00     0.00
  -80.00   350.00       1.42 -999.99    1.42    0.00000     0.00  LINEAR    5.50725E-01   -23.81    0.00000E+00     0.00
  -75.00   350.00       1.17 -999.99    1.17    0.00000     0.00  LINEAR    5.35496E-01   -32.01    0.00000E+00     0.00
  -70.00   350.00       0.83 -999.99    0.83    0.00000     0.00  LINEAR    5.14868E-01   -43.41    0.00000E+00     0.00
  -65.00   350.00       0.39 -999.99    0.39    0.00000     0.00  LINEAR    4.89479E-01   -57.92    0.00000E+00     0.00
  -60.00   350.00      -0.15 -999.99   -0.15    0.00000     0.00  LINEAR    4.60077E-01   -75.46    0.00000E+00     0.00
  -55.00   350.00      -0.78 -999.99   -0.78    0.00000     0.00  LINEAR    4.27456E-01   -95.88    0.00000E+00     0.00
  -50.00   350.00      -1.53 -999.99   -1.53    0.00000     0.00  LINEAR    3.92389E-01  -119.03    0.00000E+00     0.00
  -45.00   350.00      -2.38 -999.99   -2.38    0.00000     0.00  LINEAR    3.55557E-01  -144.73    0.00000E+00     0.00
  -40.00   350.00      -3.37 -999.99   -3.37    0.00000     0.00  LINEAR    3.17501E-01  -172.77    0.00000E+00     0.00
  -35.00   350.00      -4.50 -999.99   -4.50    0.00000     0.00  LINEAR    2.78599E-01   157.06    0.00000E+00     0.00
  -30.00   350.00      -5.83 -999.99   -5.83    0.00000     0.00  LINEAR    2.39107E-01   125.00    0.00000E+00     0.00
  -25.00   350.00      -7.42 -999.99   -7.42    0.00000     0.00  LINEAR    1.99221E-01    91.28    0.00000E+00     0.00
  -20.00   350.00      -9.37 -999.99   -9.37    0.00000     0.00  LINEAR    1.59135E-01    56.12    0.00000E+00     0.00
  -15.00   350.00     -11.89 -999.99  -11.89    0.00000     0.00  LINEAR    1.19054E-01    19.77    0.00000E+00     0.00
  -10.00   350.00     -15.43 -999.99  -15.43    0.00000     0.00  LINEAR    7.91525E-02   -17.55    0.00000E+00     0.00
   -5.00   350.00     -21.47 -999.99  -21.47    0.00000     0.00  LINEAR    3.94949E-02   -55.54    0.00000E+00     0.00
    0.00   350.00    -999.99 -999.99 -999.99    0.00000     0.00            0.00000E+00     0.00    0.00000E+00     0.00
 -180.00   355.00    -999.99 -999.99 -999.99    0.00000     0.00            4.61673E-12    86.11    0.00000E+00     0.00
 -175.00   355.00     -21.47 -999.99  -21.47    0.00000     0.00  LINEAR    3.94955E-02   -74.63    0.00000E+00     0.00
 -170.00   355.00     -15.43 -999.99  -15.43    0.00000     0.00  LINEAR    7.91496E-02   -55.54    0.00000E+00     0.00
 -165.00   355.00     -11.88 -999.99  -11.88    0.00000     0.00  LINEAR    1.19101E-01   -36.76    0.00000E+00     0.00
 -160.00   355.00      -9.35 -999.99   -9.35    0.00000     0.00  LINEAR    1.59425E-01   -18.44    0.00000E+00     0.00
 -155.00   355.00      -7.38 -999.99   -7.38    0.00000     0.00  LINEAR    2.00109E-01    -0.72    0.00000E+00     0.00
 -150.00   355.00      -5.76 -999.99   -5.76    0.00000     0.00  LINEAR    2.41036E-01    16.27    0.00000E+00     0.00
 -145.00   355.00      -4.40 -999.99   -4.40    0.00000     0.00  LINEAR    2.81974E-01    32.41    0.00000E+00     0.00
 -140.00   355.00      -3.23 -999.99   -3.23    0.00000     0.00  LINEAR    3.22569E-01    47.57    0.00000E+00     0.00
 -135.00   355.00      -2.22 -999.99   -2.22    0.00000     0.00  LINEAR    3.62355E-01    61.64    0.00000E+00     0.00
 -130.00   355.00      -1.34 -999.99   -1.34    0.00000     0.00  LINEAR    4.00761E-01    74.53    0.00000E+00     0.00
 -125.00   355.00      -0.59 -999.99   -0.59    0.00000     0.00  LINEAR    4.37127E-01    86.14    0.00000E+00     0.00
 -120.00   355.00       0.05 -999.99    0.05    0.00000     0.00  LINEAR    4.70735E-01    96.38    0.00000E+00     0.00
 -115.00   355.00       0.59 -999.99    0.59    0.00000     0.00  LINEAR    5.00837E-01   105.18    0.00000E+00     0.00
 -110.00   355.00       1.03 -999.99    1.03    0.00000     0.00  LINEAR    5.26695E-01   112.47    0.00000E+00     0.00
 -105.00   355.00       1.37 -999.99    1.37    0.00000     0.00  LINEAR    5.47624E-01   118.20    0.00000E+00     0.00
 -100.00   355.00       1.61 -999.99    1.61    0.00000     0.00  LINEAR    5.63035E-01   122.32    0.00000E+00     0.00
  -95.00   355.00       1.75 -999.99    1.75    0.00000     0.00  LINEAR    5.72473E-01   124.81    0.00000E+00     0.00
  -90.00   355.00       1.80 -999.99    1.80    0.00000     0.00  LINEAR    5.75651E-01   125.64    0.00000E+00     0.00
  -85.00   355.00       1.75 -999.99    1.75    0.00000     0.00  LINEAR    5.72473E-01   124.81    0.00000E+00     0.00
  -80.00   355.00       1.61 -999.99    1.61    0.00000     0.00  LINEAR    5.63035E-01   122.32    0.00000E+00     0.00
  -75.00   355.00       1.37 -999.99    1.37    0.00000     0.00  LINEAR    5.47624E-01   118.20    0.00000E+00     0.00
  -70.00   355.00       1.03 -999.99    1.03    0.00000     0.00  LINEAR    5.26695E-01   112.47    0.00000E+00     0.00
  -65.00   355.00       0.59 -999.99    0.59    0.00000     0.00  LINEAR    5.00837E-01   105.18    0.00000E+00     0.00
  -60.00   355.00       0.05 -999.99    0.05    0.00000     0.00  LINEAR    4.70735E-01    96.38    0.00000E+00     0.00
  -55.00   355.00      -0.59 -999.99   -0.59    0.00000     0.00  LINEAR    4.37127E-01    86.14    0.00000E+00     0.00
  -50.00   355.00      -1.34 -999.99   -1.34    0.00000     0.00  LINEAR    4.00761E-01    74.53    0.00000E+00     0.00
  -45.00   355.00      -2.22 -999.99   -2.22    0.00000     0.00  LINEAR    3.62355E-01    61.64    0.00000E+00     0.00
  -40.00   355.00      -3.23 -999.99   -3.23    0.00000     0.00  LINEAR    3.22569E-01    47.57    0.00000E+00     0.00
  -35.00   355.00      -4.40 -999.99   -4.40    0.00000     0.00  LINEAR    2.81974E-01    32.41    0.00000E+00     0.00
  -30.00   355.00      -5.76 -999.99   -5.76    0.00000     0.00  LINEAR    2.41036E-01    16.27    0.00000E+00     0.00
  -25.00   355.00      -7.38 -999.99   -7.38    0.00000     0.00  LINEAR    2.00109E-01    -0.72    0.00000E+00     0.00
  -20.00   355.00      -9.35 -999.99   -9.35    0.00000     0.00  LINEAR    1.59425E-01   -18.44    0.00000E+00     0.00
  -15.00   355.00     -11.88 -999.99  -11.88    0.00000     0.00  LINEAR    1.19101E-01   -36.76    0.00000E+00     0.00
  -10.00   355.00     -15.43 -999.99  -15.43    0.00000     0.00  LINEAR    7.91496E-02   -55.54    0.00000E+00     0.00
   -5.00   355.00     -21.47 -999.99  -21.47    0.00000     0.00  LINEAR    3.94955E-02   -74.63    0.00000E+00     0.00
    0.00   355.00    -999.99 -999.99 -999.99    0.00000     0.00            0.00000E+00     0.00    0.00000E+00     0.00
 -180.00   360.00    -999.99 -999.99 -999.99    0.00000     0.00            4.61673E-12    86.11    0.00000E+00     0.00
 -175.00   360.00     -21.47 -999.99  -21.47    0.00000     0.00  LINEAR    3.94997E-02   -93.89    0.00000E+00     0.00
 -170.00   360.00     -15.43 -999.99  -15.43    0.00000     0.00  LINEAR    7.91593E-02   -93.89    0.00000E+00     0.00
 -165.00   360.00     -11.88 -999.99  -11.88    0.00000     0.00  LINEAR    1.19112E-01   -93.91    0.00000E+00     0.00
 -160.00   360.00      -9.35 -999.99   -9.35    0.00000     0.00  LINEAR    1.59439E-01   -93.92    0.00000E+00     0.00
 -155.00   360.00      -7.38 -999.99   -7.38    0.00000     0.00  LINEAR    2.00145E-01   -93.94    0.00000E+00     0.00
 -150.00   360.00      -5.76 -999.99   -5.76    0.00000     0.00  LINEAR    2.41139E-01   -93.96    0.00000E+00     0.00
 -145.00   360.00      -4.39 -999.99   -4.39    0.00000     0.00  LINEAR    2.82216E-01   -93.98    0.00000E+00     0.00
 -140.00   360.00      -3.22 -999.99   -3.22    0.00000     0.00  LINEAR    3.23048E-01   -94.00    0.00000E+00     0.00
 -135.00   360.00      -2.20 -999.99   -2.20    0.00000     0.00  LINEAR    3.63181E-01   -94.03    0.00000E+00     0.00
 -130.00   360.00      -1.32 -999.99   -1.32    0.00000     0.00  LINEAR    4.02044E-01   -94.05    0.00000E+00     0.00
 -125.00   360.00      -0.55 -999.99   -0.55    0.00000     0.00  LINEAR    4.38959E-01   -94.07    0.00000E+00     0.00
 -120.00   360.00       0.10 -999.99    0.10    0.00000     0.00  LINEAR    4.73178E-01   -94.09    0.00000E+00     0.00
 -115.00   360.00       0.65 -999.99    0.65    0.00000     0.00  LINEAR    5.03911E-01   -94.11    0.00000E+00     0.00
 -110.00   360.00       1.09 -999.99    1.09    0.00000     0.00  LINEAR    5.30372E-01   -94.12    0.00000E+00     0.00
 -105.00   360.00       1.43 -999.99    1.43    0.00000     0.00  LINEAR    5.51830E-01   -94.13    0.00000E+00     0.00
 -100.00   360.00       1.68 -999.99    1.68    0.00000     0.00  LINEAR    5.67651E-01   -94.14    0.00000E+00     0.00
  -95.00   360.00       1.83 -999.99    1.83    0.00000     0.00  LINEAR    5.77350E-01   -94.15    0.00000E+00     0.00
  -90.00   360.00       1.88 -999.99    1.88    0.00000     0.00  LINEAR    5.80618E-01   -94.15    0.00000E+00     0.00
  -85.00   360.00       1.83 -999.99    1.83    0.00000     0.00  LINEAR    5.77350E-01   -94.15    0.00000E+00     0.00
  -80.00   360.00       1.68 -999.99    1.68    0.00000     0.00  LINEAR    5.67651E-01   -94.14    0.00000E+00     0.00
  -75.00   360.00       1.43 -999.99    1.43    0.00000     0.00  LINEAR    5.51830E-01   -94.13    0.00000E+00     0.00
  -70.00   360.00       1.09 -999.99    1.09    0.00000     0.00  LINEAR    5.30372E-01   -94.12    0.00000E+00     0.00
  -65.00   360.00       0.65 -999.99    0.65    0.00000     0.00  LINEAR    5.03911E-01   -94.11    0.00000E+00     0.00
  -60.00   360.00       0.10 -999.99    0.10    0.00000     0.00  LINEAR    4.73178E-01   -94.09    0.00000E+00     0.00
  -55.00   360.00      -0.55 -999.99   -0.55    0.00000     0.00  LINEAR    4.38959E-01   -94.07    0.00000E+00     0.00
  -50.00   360.00      -1.32 -999.99   -1.32    0.00000     0.00  LINEAR    4.02044E-01   -94.05    0.00000E+00     0.00
  -45.00   360.00      -2.20 -999.99   -2.20    0.00000     0.00  LINEAR    3.63181E-01   -94.03    0.00000E+00     0.00
  -40.00   360.00      -3.22 -999.99   -3.22    0.00000     0.00  LINEAR    3.23048E-01   -94.00    0.00000E+00     0.00
  -35.00   360.00      -4.39 -999.99   -4.39    0.00000     0.00  LINEAR    2.82216E-01   -93.98    0.00000E+00     0.00
  -30.00   360.00      -5.76 -999.99   -5.76    0.00000     0.00  LINEAR    2.41139E-01   -93.96    0.00000E+00     0.00
  -25.00   360.00      -7.38 -999.99   -7.38    0.00000     0.00  LINEAR    2.00145E-01   -93.94    0.00000E+00     0.00
  -20.00   360.00      -9.35 -999.99   -9.35    0.00000     0.00  LINEAR    1.59439E-01   -93.92    0.00000E+00     0.00
  -15.00   360.00     -11.88 -999.99  -11.88    0.00000     0.00  LINEAR    1.19112E-01   -93.91    0.00000E+00     0.00
  -10.00   360.00     -15.43 -999.99  -15.43    0.00000     0.00  LINEAR    7.91593E-02   -93.89    0.00000E+00     0.00
   -5.00   360.00     -21.47 -999.99  -21.47    0.00000     0.00  LINEAR    3.94997E-02   -93.89    0.00000E+00     0.00
    0.00   360.00    -999.99 -999.99 -999.99    0.00000     0.00            0.00000E+00     0.00    0.00000E+00     0.00


   AVERAGE POWER GAIN= 5.81668E-01       SOLID ANGLE USED IN AVERAGING=( 4.0000)*PI STERADIANS.








 ***** DATA CARD NO. 26   EN   0    37    73  1003 -1.80000E+02  0.00000E+00  5.00000E+00  5.00000E+00  0.00000E+00  0.00000E+00

 RUN TIME =     0.328
