1



                                 *********************************************

                                    NUMERICAL ELECTROMAGNETICS CODE (NEC-2D)

                                 *********************************************




                                     - - - - COMMENTS - - - -


                                                                                                     
                          forw:-999, 0 ; back: 0, 0                                                  
                                                                                                     




                                 - - - STRUCTURE SPECIFICATION - - -

                                     COORDINATES MUST BE INPUT IN
                                     METERS OR BE SCALED TO METERS
                                     BEFORE STRUCTURE INPUT IS ENDED


  WIRE                                                                               NO. OF    FIRST  LAST     TAG
  NO.        X1         Y1         Z1          X2         Y2         Z2      RADIUS   SEG.     SEG.   SEG.     NO.
     1    0.00000    0.00000   -0.17430     0.00000    0.00000    0.17430    0.00010      9        1     9       1
     2    0.00000    0.34860   -0.17430     0.00000    0.34860    0.17430    0.00010      9       10    18       2
     3    0.00000    0.69719   -0.17430     0.00000    0.69719    0.17430    0.00010      9       19    27       3
     4    0.00000    1.04579   -0.17430     0.00000    1.04579    0.17430    0.00010      9       28    36       4
     5    0.00000    1.39438   -0.17430     0.00000    1.39438    0.17430    0.00010      9       37    45       5
     6    0.00000    1.74298   -0.17430     0.00000    1.74298    0.17430    0.00010      9       46    54       6
     7    0.00000    2.09158   -0.17430     0.00000    2.09158    0.17430    0.00010      9       55    63       7
     8    0.00000    2.44017   -0.17430     0.00000    2.44017    0.17430    0.00010      9       64    72       8
     9    0.00000    2.78877   -0.17430     0.00000    2.78877    0.17430    0.00010      9       73    81       9
    10    0.00000    3.13736   -0.17430     0.00000    3.13736    0.17430    0.00010      9       82    90      10
    11    0.00000    3.48596   -0.17430     0.00000    3.48596    0.17430    0.00010      9       91    99      11
    12    0.00000    3.83455   -0.17430     0.00000    3.83455    0.17430    0.00010      9      100   108      12
    13    0.00000    4.18315   -0.17430     0.00000    4.18315    0.17430    0.00010      9      109   117      13
    14    0.00000    4.53175   -0.17430     0.00000    4.53175    0.17430    0.00010      9      118   126      14
    15    0.00000    4.88034   -0.17430     0.00000    4.88034    0.17430    0.00010      9      127   135      15
    16    0.00000    5.22894   -0.17430     0.00000    5.22894    0.17430    0.00010      9      136   144      16
    17    0.00000    5.57753   -0.17430     0.00000    5.57753    0.17430    0.00010      9      145   153      17
    18    0.00000    5.92613   -0.17430     0.00000    5.92613    0.17430    0.00010      9      154   162      18
    19    0.00000    6.27473   -0.17430     0.00000    6.27473    0.17430    0.00010      9      163   171      19
    20    0.00000    6.62332   -0.17430     0.00000    6.62332    0.17430    0.00010      9      172   180      20

   TOTAL SEGMENTS USED=  180     NO. SEG. IN A SYMMETRIC CELL=  180     SYMMETRY FLAG=  0


         - MULTIPLE WIRE JUNCTIONS -
 JUNCTION    SEGMENTS  (- FOR END 1, + FOR END 2)
  NONE




                                 - - - - SEGMENTATION DATA - - - -

                                        COORDINATES IN METERS

                         I+ AND I- INDICATE THE SEGMENTS BEFORE AND AFTER I


  SEG.   COORDINATES OF SEG. CENTER     SEG.     ORIENTATION ANGLES    WIRE    CONNECTION DATA   TAG
  NO.       X         Y         Z       LENGTH     ALPHA     BETA      RADIUS    I-   I    I+    NO.
     1   0.00000   0.00000  -0.15493   0.03873   90.00000   0.00000   0.00010     0    1    2      1
     2   0.00000   0.00000  -0.11620   0.03873   90.00000   0.00000   0.00010     1    2    3      1
     3   0.00000   0.00000  -0.07747   0.03873   90.00000   0.00000   0.00010     2    3    4      1
     4   0.00000   0.00000  -0.03873   0.03873   90.00000   0.00000   0.00010     3    4    5      1
     5   0.00000   0.00000   0.00000   0.03873   90.00000   0.00000   0.00010     4    5    6      1
     6   0.00000   0.00000   0.03873   0.03873   90.00000   0.00000   0.00010     5    6    7      1
     7   0.00000   0.00000   0.07747   0.03873   90.00000   0.00000   0.00010     6    7    8      1
     8   0.00000   0.00000   0.11620   0.03873   90.00000   0.00000   0.00010     7    8    9      1
     9   0.00000   0.00000   0.15493   0.03873   90.00000   0.00000   0.00010     8    9    0      1
    10   0.00000   0.34860  -0.15493   0.03873   90.00000   0.00000   0.00010     0   10   11      2
    11   0.00000   0.34860  -0.11620   0.03873   90.00000   0.00000   0.00010    10   11   12      2
    12   0.00000   0.34860  -0.07747   0.03873   90.00000   0.00000   0.00010    11   12   13      2
    13   0.00000   0.34860  -0.03873   0.03873   90.00000   0.00000   0.00010    12   13   14      2
    14   0.00000   0.34860   0.00000   0.03873   90.00000   0.00000   0.00010    13   14   15      2
    15   0.00000   0.34860   0.03873   0.03873   90.00000   0.00000   0.00010    14   15   16      2
    16   0.00000   0.34860   0.07747   0.03873   90.00000   0.00000   0.00010    15   16   17      2
    17   0.00000   0.34860   0.11620   0.03873   90.00000   0.00000   0.00010    16   17   18      2
    18   0.00000   0.34860   0.15493   0.03873   90.00000   0.00000   0.00010    17   18    0      2
    19   0.00000   0.69719  -0.15493   0.03873   90.00000   0.00000   0.00010     0   19   20      3
    20   0.00000   0.69719  -0.11620   0.03873   90.00000   0.00000   0.00010    19   20   21      3
    21   0.00000   0.69719  -0.07747   0.03873   90.00000   0.00000   0.00010    20   21   22      3
    22   0.00000   0.69719  -0.03873   0.03873   90.00000   0.00000   0.00010    21   22   23      3
    23   0.00000   0.69719   0.00000   0.03873   90.00000   0.00000   0.00010    22   23   24      3
    24   0.00000   0.69719   0.03873   0.03873   90.00000   0.00000   0.00010    23   24   25      3
    25   0.00000   0.69719   0.07747   0.03873   90.00000   0.00000   0.00010    24   25   26      3
    26   0.00000   0.69719   0.11620   0.03873   90.00000   0.00000   0.00010    25   26   27      3
    27   0.00000   0.69719   0.15493   0.03873   90.00000   0.00000   0.00010    26   27    0      3
    28   0.00000   1.04579  -0.15493   0.03873   90.00000   0.00000   0.00010     0   28   29      4
    29   0.00000   1.04579  -0.11620   0.03873   90.00000   0.00000   0.00010    28   29   30      4
    30   0.00000   1.04579  -0.07747   0.03873   90.00000   0.00000   0.00010    29   30   31      4
    31   0.00000   1.04579  -0.03873   0.03873   90.00000   0.00000   0.00010    30   31   32      4
    32   0.00000   1.04579   0.00000   0.03873   90.00000   0.00000   0.00010    31   32   33      4
    33   0.00000   1.04579   0.03873   0.03873   90.00000   0.00000   0.00010    32   33   34      4
    34   0.00000   1.04579   0.07747   0.03873   90.00000   0.00000   0.00010    33   34   35      4
    35   0.00000   1.04579   0.11620   0.03873   90.00000   0.00000   0.00010    34   35   36      4
    36   0.00000   1.04579   0.15493   0.03873   90.00000   0.00000   0.00010    35   36    0      4
    37   0.00000   1.39438  -0.15493   0.03873   90.00000   0.00000   0.00010     0   37   38      5
    38   0.00000   1.39438  -0.11620   0.03873   90.00000   0.00000   0.00010    37   38   39      5
    39   0.00000   1.39438  -0.07747   0.03873   90.00000   0.00000   0.00010    38   39   40      5
    40   0.00000   1.39438  -0.03873   0.03873   90.00000   0.00000   0.00010    39   40   41      5
    41   0.00000   1.39438   0.00000   0.03873   90.00000   0.00000   0.00010    40   41   42      5
    42   0.00000   1.39438   0.03873   0.03873   90.00000   0.00000   0.00010    41   42   43      5
    43   0.00000   1.39438   0.07747   0.03873   90.00000   0.00000   0.00010    42   43   44      5
    44   0.00000   1.39438   0.11620   0.03873   90.00000   0.00000   0.00010    43   44   45      5
    45   0.00000   1.39438   0.15493   0.03873   90.00000   0.00000   0.00010    44   45    0      5
    46   0.00000   1.74298  -0.15493   0.03873   90.00000   0.00000   0.00010     0   46   47      6
    47   0.00000   1.74298  -0.11620   0.03873   90.00000   0.00000   0.00010    46   47   48      6
    48   0.00000   1.74298  -0.07747   0.03873   90.00000   0.00000   0.00010    47   48   49      6
    49   0.00000   1.74298  -0.03873   0.03873   90.00000   0.00000   0.00010    48   49   50      6
    50   0.00000   1.74298   0.00000   0.03873   90.00000   0.00000   0.00010    49   50   51      6
    51   0.00000   1.74298   0.03873   0.03873   90.00000   0.00000   0.00010    50   51   52      6
    52   0.00000   1.74298   0.07747   0.03873   90.00000   0.00000   0.00010    51   52   53      6
    53   0.00000   1.74298   0.11620   0.03873   90.00000   0.00000   0.00010    52   53   54      6
    54   0.00000   1.74298   0.15493   0.03873   90.00000   0.00000   0.00010    53   54    0      6
    55   0.00000   2.09158  -0.15493   0.03873   90.00000   0.00000   0.00010     0   55   56      7
    56   0.00000   2.09158  -0.11620   0.03873   90.00000   0.00000   0.00010    55   56   57      7
    57   0.00000   2.09158  -0.07747   0.03873   90.00000   0.00000   0.00010    56   57   58      7
    58   0.00000   2.09158  -0.03873   0.03873   90.00000   0.00000   0.00010    57   58   59      7
    59   0.00000   2.09158   0.00000   0.03873   90.00000   0.00000   0.00010    58   59   60      7
    60   0.00000   2.09158   0.03873   0.03873   90.00000   0.00000   0.00010    59   60   61      7
    61   0.00000   2.09158   0.07747   0.03873   90.00000   0.00000   0.00010    60   61   62      7
    62   0.00000   2.09158   0.11620   0.03873   90.00000   0.00000   0.00010    61   62   63      7
    63   0.00000   2.09158   0.15493   0.03873   90.00000   0.00000   0.00010    62   63    0      7
    64   0.00000   2.44017  -0.15493   0.03873   90.00000   0.00000   0.00010     0   64   65      8
    65   0.00000   2.44017  -0.11620   0.03873   90.00000   0.00000   0.00010    64   65   66      8
    66   0.00000   2.44017  -0.07747   0.03873   90.00000   0.00000   0.00010    65   66   67      8
    67   0.00000   2.44017  -0.03873   0.03873   90.00000   0.00000   0.00010    66   67   68      8
    68   0.00000   2.44017   0.00000   0.03873   90.00000   0.00000   0.00010    67   68   69      8
    69   0.00000   2.44017   0.03873   0.03873   90.00000   0.00000   0.00010    68   69   70      8
    70   0.00000   2.44017   0.07747   0.03873   90.00000   0.00000   0.00010    69   70   71      8
    71   0.00000   2.44017   0.11620   0.03873   90.00000   0.00000   0.00010    70   71   72      8
    72   0.00000   2.44017   0.15493   0.03873   90.00000   0.00000   0.00010    71   72    0      8
    73   0.00000   2.78877  -0.15493   0.03873   90.00000   0.00000   0.00010     0   73   74      9
    74   0.00000   2.78877  -0.11620   0.03873   90.00000   0.00000   0.00010    73   74   75      9
    75   0.00000   2.78877  -0.07747   0.03873   90.00000   0.00000   0.00010    74   75   76      9
    76   0.00000   2.78877  -0.03873   0.03873   90.00000   0.00000   0.00010    75   76   77      9
    77   0.00000   2.78877   0.00000   0.03873   90.00000   0.00000   0.00010    76   77   78      9
    78   0.00000   2.78877   0.03873   0.03873   90.00000   0.00000   0.00010    77   78   79      9
    79   0.00000   2.78877   0.07747   0.03873   90.00000   0.00000   0.00010    78   79   80      9
    80   0.00000   2.78877   0.11620   0.03873   90.00000   0.00000   0.00010    79   80   81      9
    81   0.00000   2.78877   0.15493   0.03873   90.00000   0.00000   0.00010    80   81    0      9
    82   0.00000   3.13736  -0.15493   0.03873   90.00000   0.00000   0.00010     0   82   83     10
    83   0.00000   3.13736  -0.11620   0.03873   90.00000   0.00000   0.00010    82   83   84     10
    84   0.00000   3.13736  -0.07747   0.03873   90.00000   0.00000   0.00010    83   84   85     10
    85   0.00000   3.13736  -0.03873   0.03873   90.00000   0.00000   0.00010    84   85   86     10
    86   0.00000   3.13736   0.00000   0.03873   90.00000   0.00000   0.00010    85   86   87     10
    87   0.00000   3.13736   0.03873   0.03873   90.00000   0.00000   0.00010    86   87   88     10
    88   0.00000   3.13736   0.07747   0.03873   90.00000   0.00000   0.00010    87   88   89     10
    89   0.00000   3.13736   0.11620   0.03873   90.00000   0.00000   0.00010    88   89   90     10
    90   0.00000   3.13736   0.15493   0.03873   90.00000   0.00000   0.00010    89   90    0     10
    91   0.00000   3.48596  -0.15493   0.03873   90.00000   0.00000   0.00010     0   91   92     11
    92   0.00000   3.48596  -0.11620   0.03873   90.00000   0.00000   0.00010    91   92   93     11
    93   0.00000   3.48596  -0.07747   0.03873   90.00000   0.00000   0.00010    92   93   94     11
    94   0.00000   3.48596  -0.03873   0.03873   90.00000   0.00000   0.00010    93   94   95     11
    95   0.00000   3.48596   0.00000   0.03873   90.00000   0.00000   0.00010    94   95   96     11
    96   0.00000   3.48596   0.03873   0.03873   90.00000   0.00000   0.00010    95   96   97     11
    97   0.00000   3.48596   0.07747   0.03873   90.00000   0.00000   0.00010    96   97   98     11
    98   0.00000   3.48596   0.11620   0.03873   90.00000   0.00000   0.00010    97   98   99     11
    99   0.00000   3.48596   0.15493   0.03873   90.00000   0.00000   0.00010    98   99    0     11
   100   0.00000   3.83455  -0.15493   0.03873   90.00000   0.00000   0.00010     0  100  101     12
   101   0.00000   3.83455  -0.11620   0.03873   90.00000   0.00000   0.00010   100  101  102     12
   102   0.00000   3.83455  -0.07747   0.03873   90.00000   0.00000   0.00010   101  102  103     12
   103   0.00000   3.83455  -0.03873   0.03873   90.00000   0.00000   0.00010   102  103  104     12
   104   0.00000   3.83455   0.00000   0.03873   90.00000   0.00000   0.00010   103  104  105     12
   105   0.00000   3.83455   0.03873   0.03873   90.00000   0.00000   0.00010   104  105  106     12
   106   0.00000   3.83455   0.07747   0.03873   90.00000   0.00000   0.00010   105  106  107     12
   107   0.00000   3.83455   0.11620   0.03873   90.00000   0.00000   0.00010   106  107  108     12
   108   0.00000   3.83455   0.15493   0.03873   90.00000   0.00000   0.00010   107  108    0     12
   109   0.00000   4.18315  -0.15493   0.03873   90.00000   0.00000   0.00010     0  109  110     13
   110   0.00000   4.18315  -0.11620   0.03873   90.00000   0.00000   0.00010   109  110  111     13
   111   0.00000   4.18315  -0.07747   0.03873   90.00000   0.00000   0.00010   110  111  112     13
   112   0.00000   4.18315  -0.03873   0.03873   90.00000   0.00000   0.00010   111  112  113     13
   113   0.00000   4.18315   0.00000   0.03873   90.00000   0.00000   0.00010   112  113  114     13
   114   0.00000   4.18315   0.03873   0.03873   90.00000   0.00000   0.00010   113  114  115     13
   115   0.00000   4.18315   0.07747   0.03873   90.00000   0.00000   0.00010   114  115  116     13
   116   0.00000   4.18315   0.11620   0.03873   90.00000   0.00000   0.00010   115  116  117     13
   117   0.00000   4.18315   0.15493   0.03873   90.00000   0.00000   0.00010   116  117    0     13
   118   0.00000   4.53175  -0.15493   0.03873   90.00000   0.00000   0.00010     0  118  119     14
   119   0.00000   4.53175  -0.11620   0.03873   90.00000   0.00000   0.00010   118  119  120     14
   120   0.00000   4.53175  -0.07747   0.03873   90.00000   0.00000   0.00010   119  120  121     14
   121   0.00000   4.53175  -0.03873   0.03873   90.00000   0.00000   0.00010   120  121  122     14
   122   0.00000   4.53175   0.00000   0.03873   90.00000   0.00000   0.00010   121  122  123     14
   123   0.00000   4.53175   0.03873   0.03873   90.00000   0.00000   0.00010   122  123  124     14
   124   0.00000   4.53175   0.07747   0.03873   90.00000   0.00000   0.00010   123  124  125     14
   125   0.00000   4.53175   0.11620   0.03873   90.00000   0.00000   0.00010   124  125  126     14
   126   0.00000   4.53175   0.15493   0.03873   90.00000   0.00000   0.00010   125  126    0     14
   127   0.00000   4.88034  -0.15493   0.03873   90.00000   0.00000   0.00010     0  127  128     15
   128   0.00000   4.88034  -0.11620   0.03873   90.00000   0.00000   0.00010   127  128  129     15
   129   0.00000   4.88034  -0.07747   0.03873   90.00000   0.00000   0.00010   128  129  130     15
   130   0.00000   4.88034  -0.03873   0.03873   90.00000   0.00000   0.00010   129  130  131     15
   131   0.00000   4.88034   0.00000   0.03873   90.00000   0.00000   0.00010   130  131  132     15
   132   0.00000   4.88034   0.03873   0.03873   90.00000   0.00000   0.00010   131  132  133     15
   133   0.00000   4.88034   0.07747   0.03873   90.00000   0.00000   0.00010   132  133  134     15
   134   0.00000   4.88034   0.11620   0.03873   90.00000   0.00000   0.00010   133  134  135     15
   135   0.00000   4.88034   0.15493   0.03873   90.00000   0.00000   0.00010   134  135    0     15
   136   0.00000   5.22894  -0.15493   0.03873   90.00000   0.00000   0.00010     0  136  137     16
   137   0.00000   5.22894  -0.11620   0.03873   90.00000   0.00000   0.00010   136  137  138     16
   138   0.00000   5.22894  -0.07747   0.03873   90.00000   0.00000   0.00010   137  138  139     16
   139   0.00000   5.22894  -0.03873   0.03873   90.00000   0.00000   0.00010   138  139  140     16
   140   0.00000   5.22894   0.00000   0.03873   90.00000   0.00000   0.00010   139  140  141     16
   141   0.00000   5.22894   0.03873   0.03873   90.00000   0.00000   0.00010   140  141  142     16
   142   0.00000   5.22894   0.07747   0.03873   90.00000   0.00000   0.00010   141  142  143     16
   143   0.00000   5.22894   0.11620   0.03873   90.00000   0.00000   0.00010   142  143  144     16
   144   0.00000   5.22894   0.15493   0.03873   90.00000   0.00000   0.00010   143  144    0     16
   145   0.00000   5.57753  -0.15493   0.03873   90.00000   0.00000   0.00010     0  145  146     17
   146   0.00000   5.57753  -0.11620   0.03873   90.00000   0.00000   0.00010   145  146  147     17
   147   0.00000   5.57753  -0.07747   0.03873   90.00000   0.00000   0.00010   146  147  148     17
   148   0.00000   5.57753  -0.03873   0.03873   90.00000   0.00000   0.00010   147  148  149     17
   149   0.00000   5.57753   0.00000   0.03873   90.00000   0.00000   0.00010   148  149  150     17
   150   0.00000   5.57753   0.03873   0.03873   90.00000   0.00000   0.00010   149  150  151     17
   151   0.00000   5.57753   0.07747   0.03873   90.00000   0.00000   0.00010   150  151  152     17
   152   0.00000   5.57753   0.11620   0.03873   90.00000   0.00000   0.00010   151  152  153     17
   153   0.00000   5.57753   0.15493   0.03873   90.00000   0.00000   0.00010   152  153    0     17
   154   0.00000   5.92613  -0.15493   0.03873   90.00000   0.00000   0.00010     0  154  155     18
   155   0.00000   5.92613  -0.11620   0.03873   90.00000   0.00000   0.00010   154  155  156     18
   156   0.00000   5.92613  -0.07747   0.03873   90.00000   0.00000   0.00010   155  156  157     18
   157   0.00000   5.92613  -0.03873   0.03873   90.00000   0.00000   0.00010   156  157  158     18
   158   0.00000   5.92613   0.00000   0.03873   90.00000   0.00000   0.00010   157  158  159     18
   159   0.00000   5.92613   0.03873   0.03873   90.00000   0.00000   0.00010   158  159  160     18
   160   0.00000   5.92613   0.07747   0.03873   90.00000   0.00000   0.00010   159  160  161     18
   161   0.00000   5.92613   0.11620   0.03873   90.00000   0.00000   0.00010   160  161  162     18
   162   0.00000   5.92613   0.15493   0.03873   90.00000   0.00000   0.00010   161  162    0     18
   163   0.00000   6.27473  -0.15493   0.03873   90.00000   0.00000   0.00010     0  163  164     19
   164   0.00000   6.27473  -0.11620   0.03873   90.00000   0.00000   0.00010   163  164  165     19
   165   0.00000   6.27473  -0.07747   0.03873   90.00000   0.00000   0.00010   164  165  166     19
   166   0.00000   6.27473  -0.03873   0.03873   90.00000   0.00000   0.00010   165  166  167     19
   167   0.00000   6.27473   0.00000   0.03873   90.00000   0.00000   0.00010   166  167  168     19
   168   0.00000   6.27473   0.03873   0.03873   90.00000   0.00000   0.00010   167  168  169     19
   169   0.00000   6.27473   0.07747   0.03873   90.00000   0.00000   0.00010   168  169  170     19
   170   0.00000   6.27473   0.11620   0.03873   90.00000   0.00000   0.00010   169  170  171     19
   171   0.00000   6.27473   0.15493   0.03873   90.00000   0.00000   0.00010   170  171    0     19
   172   0.00000   6.62332  -0.15493   0.03873   90.00000   0.00000   0.00010     0  172  173     20
   173   0.00000   6.62332  -0.11620   0.03873   90.00000   0.00000   0.00010   172  173  174     20
   174   0.00000   6.62332  -0.07747   0.03873   90.00000   0.00000   0.00010   173  174  175     20
   175   0.00000   6.62332  -0.03873   0.03873   90.00000   0.00000   0.00010   174  175  176     20
   176   0.00000   6.62332   0.00000   0.03873   90.00000   0.00000   0.00010   175  176  177     20
   177   0.00000   6.62332   0.03873   0.03873   90.00000   0.00000   0.00010   176  177  178     20
   178   0.00000   6.62332   0.07747   0.03873   90.00000   0.00000   0.00010   177  178  179     20
   179   0.00000   6.62332   0.11620   0.03873   90.00000   0.00000   0.00010   178  179  180     20
   180   0.00000   6.62332   0.15493   0.03873   90.00000   0.00000   0.00010   179  180    0     20






 ***** DATA CARD NO.  1   LD   4     1     5     5  5.00000E+01  0.00000E+00  0.00000E+00  0.00000E+00  0.00000E+00  0.00000E+00
 ***** DATA CARD NO.  2   LD   4     2     5     5  5.00000E+01  0.00000E+00  0.00000E+00  0.00000E+00  0.00000E+00  0.00000E+00
 ***** DATA CARD NO.  3   LD   4     3     5     5  5.00000E+01  0.00000E+00  0.00000E+00  0.00000E+00  0.00000E+00  0.00000E+00
 ***** DATA CARD NO.  4   LD   4     4     5     5  5.00000E+01  0.00000E+00  0.00000E+00  0.00000E+00  0.00000E+00  0.00000E+00
 ***** DATA CARD NO.  5   LD   4     5     5     5  5.00000E+01  0.00000E+00  0.00000E+00  0.00000E+00  0.00000E+00  0.00000E+00
 ***** DATA CARD NO.  6   LD   4     6     5     5  5.00000E+01  0.00000E+00  0.00000E+00  0.00000E+00  0.00000E+00  0.00000E+00
 ***** DATA CARD NO.  7   LD   4     7     5     5  5.00000E+01  0.00000E+00  0.00000E+00  0.00000E+00  0.00000E+00  0.00000E+00
 ***** DATA CARD NO.  8   LD   4     8     5     5  5.00000E+01  0.00000E+00  0.00000E+00  0.00000E+00  0.00000E+00  0.00000E+00
 ***** DATA CARD NO.  9   LD   4     9     5     5  5.00000E+01  0.00000E+00  0.00000E+00  0.00000E+00  0.00000E+00  0.00000E+00
 ***** DATA CARD NO. 10   LD   4    10     5     5  5.00000E+01  0.00000E+00  0.00000E+00  0.00000E+00  0.00000E+00  0.00000E+00
 ***** DATA CARD NO. 11   LD   4    11     5     5  5.00000E+01  0.00000E+00  0.00000E+00  0.00000E+00  0.00000E+00  0.00000E+00
 ***** DATA CARD NO. 12   LD   4    12     5     5  5.00000E+01  0.00000E+00  0.00000E+00  0.00000E+00  0.00000E+00  0.00000E+00
 ***** DATA CARD NO. 13   LD   4    13     5     5  5.00000E+01  0.00000E+00  0.00000E+00  0.00000E+00  0.00000E+00  0.00000E+00
 ***** DATA CARD NO. 14   LD   4    14     5     5  5.00000E+01  0.00000E+00  0.00000E+00  0.00000E+00  0.00000E+00  0.00000E+00
 ***** DATA CARD NO. 15   LD   4    15     5     5  5.00000E+01  0.00000E+00  0.00000E+00  0.00000E+00  0.00000E+00  0.00000E+00
 ***** DATA CARD NO. 16   LD   4    16     5     5  5.00000E+01  0.00000E+00  0.00000E+00  0.00000E+00  0.00000E+00  0.00000E+00
 ***** DATA CARD NO. 17   LD   4    17     5     5  5.00000E+01  0.00000E+00  0.00000E+00  0.00000E+00  0.00000E+00  0.00000E+00
 ***** DATA CARD NO. 18   LD   4    18     5     5  5.00000E+01  0.00000E+00  0.00000E+00  0.00000E+00  0.00000E+00  0.00000E+00
 ***** DATA CARD NO. 19   LD   4    19     5     5  5.00000E+01  0.00000E+00  0.00000E+00  0.00000E+00  0.00000E+00  0.00000E+00
 ***** DATA CARD NO. 20   LD   4    20     5     5  5.00000E+01  0.00000E+00  0.00000E+00  0.00000E+00  0.00000E+00  0.00000E+00
 ***** DATA CARD NO. 21   GN  -1     0     0     0  0.00000E+00  0.00000E+00  0.00000E+00  0.00000E+00  0.00000E+00  0.00000E+00
 ***** DATA CARD NO. 22   EK   0     0     0     0  0.00000E+00  0.00000E+00  0.00000E+00  0.00000E+00  0.00000E+00  0.00000E+00
 ***** DATA CARD NO. 23   EX   0    19     5     0  1.00000E+00  0.00000E+00  0.00000E+00  0.00000E+00  0.00000E+00  0.00000E+00
 ***** DATA CARD NO. 24   FR   0     0     0     0  4.30000E+02  0.00000E+00  0.00000E+00  0.00000E+00  0.00000E+00  0.00000E+00
 ***** DATA CARD NO. 25   RP   0    37    73  1003 -1.80000E+02  0.00000E+00  5.00000E+00  5.00000E+00  0.00000E+00  0.00000E+00




                                 - - - - - - FREQUENCY - - - - - -

                                    FREQUENCY= 4.3000E+02 MHZ
                                    WAVELENGTH= 6.9721E-01 METERS




                    APPROXIMATE INTEGRATION EMPLOYED FOR SEGMENTS MORE THAN   1.000 WAVELENGTHS APART

                    THE EXTENDED THIN WIRE KERNEL WILL BE USED



                               - - - STRUCTURE IMPEDANCE LOADING - - -


       LOCATION          RESISTANCE   INDUCTANCE  CAPACITANCE       IMPEDANCE (OHMS)     CONDUCTIVITY    TYPE
    ITAG FROM THRU          OHMS        HENRYS       FARADS        REAL      IMAGINARY    MHOS/METER

       1    5    5                                             5.0000E+01                             FIXED IMPEDANCE 

       2    5    5                                             5.0000E+01                             FIXED IMPEDANCE 

       3    5    5                                             5.0000E+01                             FIXED IMPEDANCE 

       4    5    5                                             5.0000E+01                             FIXED IMPEDANCE 

       5    5    5                                             5.0000E+01                             FIXED IMPEDANCE 

       6    5    5                                             5.0000E+01                             FIXED IMPEDANCE 

       7    5    5                                             5.0000E+01                             FIXED IMPEDANCE 

       8    5    5                                             5.0000E+01                             FIXED IMPEDANCE 

       9    5    5                                             5.0000E+01                             FIXED IMPEDANCE 

      10    5    5                                             5.0000E+01                             FIXED IMPEDANCE 

      11    5    5                                             5.0000E+01                             FIXED IMPEDANCE 

      12    5    5                                             5.0000E+01                             FIXED IMPEDANCE 

      13    5    5                                             5.0000E+01                             FIXED IMPEDANCE 

      14    5    5                                             5.0000E+01                             FIXED IMPEDANCE 

      15    5    5                                             5.0000E+01                             FIXED IMPEDANCE 

      16    5    5                                             5.0000E+01                             FIXED IMPEDANCE 

      17    5    5                                             5.0000E+01                             FIXED IMPEDANCE 

      18    5    5                                             5.0000E+01                             FIXED IMPEDANCE 

      19    5    5                                             5.0000E+01                             FIXED IMPEDANCE 

      20    5    5                                             5.0000E+01                             FIXED IMPEDANCE 



                                  - - - ANTENNA ENVIRONMENT - - -

                                            FREE SPACE



                                - - - MATRIX TIMING - - -

                        FILL=    0.031 SEC.,  FACTOR=    0.016 SEC.



                                          - - - ANTENNA INPUT PARAMETERS - - -

   TAG   SEG.    VOLTAGE (VOLTS)         CURRENT (AMPS)         IMPEDANCE (OHMS)        ADMITTANCE (MHOS)      POWER
   NO.   NO.    REAL        IMAG.       REAL        IMAG.       REAL        IMAG.       REAL        IMAG.     (WATTS)
    19   167 1.00000E+00 0.00000E+00 7.24151E-03-1.48356E-03 1.32530E+02 2.71514E+01 7.24151E-03-1.48356E-03 3.62076E-03



                             - - - CURRENTS AND LOCATION - - -

                                 DISTANCES IN WAVELENGTHS


  SEG.  TAG    COORD. OF SEG. CENTER     SEG.            - - - CURRENT (AMPS) - - -
  NO.   NO.     X        Y        Z      LENGTH     REAL        IMAG.       MAG.        PHASE
     1    1   0.0000   0.0000  -0.2222  0.05555  -7.5510E-06  1.7455E-07  7.5530E-06  178.676
     2    1   0.0000   0.0000  -0.1667  0.05555  -2.0365E-05  7.4473E-07  2.0379E-05  177.906
     3    1   0.0000   0.0000  -0.1111  0.05555  -3.0341E-05  1.5388E-06  3.0380E-05  177.097
     4    1   0.0000   0.0000  -0.0556  0.05555  -3.6738E-05  2.4717E-06  3.6821E-05  176.151
     5    1   0.0000   0.0000   0.0000  0.05555  -3.8912E-05  3.2402E-06  3.9047E-05  175.240
     6    1   0.0000   0.0000   0.0556  0.05555  -3.6738E-05  2.4717E-06  3.6821E-05  176.151
     7    1   0.0000   0.0000   0.1111  0.05555  -3.0341E-05  1.5388E-06  3.0380E-05  177.097
     8    1   0.0000   0.0000   0.1667  0.05555  -2.0365E-05  7.4473E-07  2.0379E-05  177.906
     9    1   0.0000   0.0000   0.2222  0.05555  -7.5510E-06  1.7455E-07  7.5530E-06  178.676
    10    2   0.0000   0.5000  -0.2222  0.05555   6.8151E-06 -1.2657E-06  6.9317E-06  -10.521
    11    2   0.0000   0.5000  -0.1667  0.05555   1.8367E-05 -3.6590E-06  1.8728E-05  -11.266
    12    2   0.0000   0.5000  -0.1111  0.05555   2.7330E-05 -5.8379E-06  2.7947E-05  -12.058
    13    2   0.0000   0.5000  -0.0556  0.05555   3.3022E-05 -7.6191E-06  3.3890E-05  -12.992
    14    2   0.0000   0.5000   0.0000  0.05555   3.4892E-05 -8.6346E-06  3.5945E-05  -13.899
    15    2   0.0000   0.5000   0.0556  0.05555   3.3022E-05 -7.6191E-06  3.3890E-05  -12.992
    16    2   0.0000   0.5000   0.1111  0.05555   2.7330E-05 -5.8379E-06  2.7947E-05  -12.058
    17    2   0.0000   0.5000   0.1667  0.05555   1.8367E-05 -3.6590E-06  1.8728E-05  -11.266
    18    2   0.0000   0.5000   0.2222  0.05555   6.8151E-06 -1.2657E-06  6.9317E-06  -10.521
    19    3   0.0000   1.0000  -0.2222  0.05555  -6.8116E-06  1.6257E-06  7.0029E-06  166.577
    20    3   0.0000   1.0000  -0.1667  0.05555  -1.8349E-05  4.6276E-06  1.8924E-05  165.846
    21    3   0.0000   1.0000  -0.1111  0.05555  -2.7287E-05  7.2789E-06  2.8242E-05  165.064
    22    3   0.0000   1.0000  -0.0556  0.05555  -3.2945E-05  9.3627E-06  3.4249E-05  164.135
    23    3   0.0000   1.0000   0.0000  0.05555  -3.4782E-05  1.0481E-05  3.6327E-05  163.230
    24    3   0.0000   1.0000   0.0556  0.05555  -3.2945E-05  9.3627E-06  3.4249E-05  164.135
    25    3   0.0000   1.0000   0.1111  0.05555  -2.7287E-05  7.2789E-06  2.8242E-05  165.064
    26    3   0.0000   1.0000   0.1667  0.05555  -1.8349E-05  4.6276E-06  1.8924E-05  165.846
    27    3   0.0000   1.0000   0.2222  0.05555  -6.8116E-06  1.6257E-06  7.0029E-06  166.577
    28    4   0.0000   1.5000  -0.2222  0.05555   7.0693E-06 -1.8448E-06  7.3061E-06  -14.626
    29    4   0.0000   1.5000  -0.1667  0.05555   1.9039E-05 -5.2273E-06  1.9744E-05  -15.352
    30    4   0.0000   1.5000  -0.1111  0.05555   2.8306E-05 -8.1864E-06  2.9466E-05  -16.131
    31    4   0.0000   1.5000  -0.0556  0.05555   3.4162E-05 -1.0482E-05  3.5734E-05  -17.058
    32    4   0.0000   1.5000   0.0000  0.05555   3.6054E-05 -1.1689E-05  3.7901E-05  -17.963
    33    4   0.0000   1.5000   0.0556  0.05555   3.4162E-05 -1.0482E-05  3.5734E-05  -17.058
    34    4   0.0000   1.5000   0.1111  0.05555   2.8306E-05 -8.1864E-06  2.9466E-05  -16.131
    35    4   0.0000   1.5000   0.1667  0.05555   1.9039E-05 -5.2273E-06  1.9744E-05  -15.352
    36    4   0.0000   1.5000   0.2222  0.05555   7.0693E-06 -1.8448E-06  7.3061E-06  -14.626
    37    5   0.0000   2.0000  -0.2222  0.05555  -7.5019E-06  2.0233E-06  7.7700E-06  164.907
    38    5   0.0000   2.0000  -0.1667  0.05555  -2.0202E-05  5.7238E-06  2.0997E-05  164.181
    39    5   0.0000   2.0000  -0.1111  0.05555  -3.0030E-05  8.9505E-06  3.1335E-05  163.403
    40    5   0.0000   2.0000  -0.0556  0.05555  -3.6238E-05  1.1442E-05  3.8001E-05  162.476
    41    5   0.0000   2.0000   0.0000  0.05555  -3.8239E-05  1.2742E-05  4.0306E-05  161.572
    42    5   0.0000   2.0000   0.0556  0.05555  -3.6238E-05  1.1442E-05  3.8001E-05  162.476
    43    5   0.0000   2.0000   0.1111  0.05555  -3.0030E-05  8.9505E-06  3.1335E-05  163.403
    44    5   0.0000   2.0000   0.1667  0.05555  -2.0202E-05  5.7238E-06  2.0997E-05  164.181
    45    5   0.0000   2.0000   0.2222  0.05555  -7.5019E-06  2.0233E-06  7.7700E-06  164.907
    46    6   0.0000   2.4999  -0.2222  0.05555   8.0946E-06 -2.1908E-06  8.3858E-06  -15.144
    47    6   0.0000   2.4999  -0.1667  0.05555   2.1797E-05 -6.1969E-06  2.2660E-05  -15.871
    48    6   0.0000   2.4999  -0.1111  0.05555   3.2399E-05 -9.6889E-06  3.3817E-05  -16.649
    49    6   0.0000   2.4999  -0.0556  0.05555   3.9096E-05 -1.2384E-05  4.1010E-05  -17.577
    50    6   0.0000   2.4999   0.0000  0.05555   4.1254E-05 -1.3789E-05  4.3497E-05  -18.481
    51    6   0.0000   2.4999   0.0556  0.05555   3.9096E-05 -1.2384E-05  4.1010E-05  -17.577
    52    6   0.0000   2.4999   0.1111  0.05555   3.2399E-05 -9.6889E-06  3.3817E-05  -16.649
    53    6   0.0000   2.4999   0.1667  0.05555   2.1797E-05 -6.1969E-06  2.2660E-05  -15.871
    54    6   0.0000   2.4999   0.2222  0.05555   8.0946E-06 -2.1908E-06  8.3858E-06  -15.144
    55    7   0.0000   2.9999  -0.2222  0.05555  -8.8623E-06  2.3590E-06  9.1708E-06  165.094
    56    7   0.0000   2.9999  -0.1667  0.05555  -2.3864E-05  6.6783E-06  2.4780E-05  164.365
    57    7   0.0000   2.9999  -0.1111  0.05555  -3.5472E-05  1.0450E-05  3.6979E-05  163.586
    58    7   0.0000   2.9999  -0.0556  0.05555  -4.2806E-05  1.3368E-05  4.4844E-05  162.657
    59    7   0.0000   2.9999   0.0000  0.05555  -4.5172E-05  1.4894E-05  4.7564E-05  161.752
    60    7   0.0000   2.9999   0.0556  0.05555  -4.2806E-05  1.3368E-05  4.4844E-05  162.657
    61    7   0.0000   2.9999   0.1111  0.05555  -3.5472E-05  1.0450E-05  3.6979E-05  163.586
    62    7   0.0000   2.9999   0.1667  0.05555  -2.3864E-05  6.6783E-06  2.4780E-05  164.365
    63    7   0.0000   2.9999   0.2222  0.05555  -8.8623E-06  2.3590E-06  9.1708E-06  165.094
    64    8   0.0000   3.4999  -0.2222  0.05555   9.8425E-06 -2.5333E-06  1.0163E-05  -14.434
    65    8   0.0000   3.4999  -0.1667  0.05555   2.6504E-05 -7.1838E-06  2.7460E-05  -15.166
    66    8   0.0000   3.4999  -0.1111  0.05555   3.9399E-05 -1.1259E-05  4.0976E-05  -15.948
    67    8   0.0000   3.4999  -0.0556  0.05555   4.7550E-05 -1.4426E-05  4.9690E-05  -16.877
    68    8   0.0000   3.4999   0.0000  0.05555   5.0185E-05 -1.6096E-05  5.2703E-05  -17.782
    69    8   0.0000   3.4999   0.0556  0.05555   4.7550E-05 -1.4426E-05  4.9690E-05  -16.877
    70    8   0.0000   3.4999   0.1111  0.05555   3.9399E-05 -1.1259E-05  4.0976E-05  -15.948
    71    8   0.0000   3.4999   0.1667  0.05555   2.6504E-05 -7.1838E-06  2.7460E-05  -15.166
    72    8   0.0000   3.4999   0.2222  0.05555   9.8425E-06 -2.5333E-06  1.0163E-05  -14.434
    73    9   0.0000   3.9999  -0.2222  0.05555  -1.1098E-05  2.7146E-06  1.1425E-05  166.256
    74    9   0.0000   3.9999  -0.1667  0.05555  -2.9887E-05  7.7182E-06  3.0867E-05  165.520
    75    9   0.0000   3.9999  -0.1111  0.05555  -4.4433E-05  1.2126E-05  4.6058E-05  164.735
    76    9   0.0000   3.9999  -0.0556  0.05555  -5.3634E-05  1.5578E-05  5.5851E-05  163.804
    77    9   0.0000   3.9999   0.0000  0.05555  -5.6618E-05  1.7420E-05  5.9237E-05  162.898
    78    9   0.0000   3.9999   0.0556  0.05555  -5.3634E-05  1.5578E-05  5.5851E-05  163.804
    79    9   0.0000   3.9999   0.1111  0.05555  -4.4433E-05  1.2126E-05  4.6058E-05  164.735
    80    9   0.0000   3.9999   0.1667  0.05555  -2.9887E-05  7.7182E-06  3.0867E-05  165.520
    81    9   0.0000   3.9999   0.2222  0.05555  -1.1098E-05  2.7146E-06  1.1425E-05  166.256
    82   10   0.0000   4.4999  -0.2222  0.05555   1.2729E-05 -2.8988E-06  1.3055E-05  -12.829
    83   10   0.0000   4.4999  -0.1667  0.05555   3.4282E-05 -8.2744E-06  3.5267E-05  -13.569
    84   10   0.0000   4.4999  -0.1111  0.05555   5.0976E-05 -1.3048E-05  5.2619E-05  -14.357
    85   10   0.0000   4.4999  -0.0556  0.05555   6.1546E-05 -1.6826E-05  6.3804E-05  -15.290
    86   10   0.0000   4.4999   0.0000  0.05555   6.4986E-05 -1.8876E-05  6.7672E-05  -16.197
    87   10   0.0000   4.4999   0.0556  0.05555   6.1546E-05 -1.6826E-05  6.3804E-05  -15.290
    88   10   0.0000   4.4999   0.1111  0.05555   5.0976E-05 -1.3048E-05  5.2619E-05  -14.357
    89   10   0.0000   4.4999   0.1667  0.05555   3.4282E-05 -8.2744E-06  3.5267E-05  -13.569
    90   10   0.0000   4.4999   0.2222  0.05555   1.2729E-05 -2.8988E-06  1.3055E-05  -12.829
    91   11   0.0000   4.9999  -0.2222  0.05555  -1.4896E-05  3.0727E-06  1.5210E-05  168.345
    92   11   0.0000   4.9999  -0.1667  0.05555  -4.0124E-05  8.8225E-06  4.1082E-05  167.599
    93   11   0.0000   4.9999  -0.1111  0.05555  -5.9673E-05  1.3988E-05  6.1291E-05  166.807
    94   11   0.0000   4.9999  -0.0556  0.05555  -7.2068E-05  1.8139E-05  7.4316E-05  165.872
    95   11   0.0000   4.9999   0.0000  0.05555  -7.6121E-05  2.0446E-05  7.8819E-05  164.965
    96   11   0.0000   4.9999   0.0556  0.05555  -7.2068E-05  1.8139E-05  7.4316E-05  165.872
    97   11   0.0000   4.9999   0.1111  0.05555  -5.9673E-05  1.3988E-05  6.1291E-05  166.807
    98   11   0.0000   4.9999   0.1667  0.05555  -4.0124E-05  8.8225E-06  4.1082E-05  167.599
    99   11   0.0000   4.9999   0.2222  0.05555  -1.4896E-05  3.0727E-06  1.5210E-05  168.345
   100   12   0.0000   5.4999  -0.2222  0.05555   1.7868E-05 -3.2022E-06  1.8153E-05  -10.160
   101   12   0.0000   5.4999  -0.1667  0.05555   4.8135E-05 -9.2808E-06  4.9022E-05  -10.913
   102   12   0.0000   5.4999  -0.1111  0.05555   7.1605E-05 -1.4841E-05  7.3127E-05  -11.709
   103   12   0.0000   5.4999  -0.0556  0.05555   8.6511E-05 -1.9412E-05  8.8662E-05  -12.647
   104   12   0.0000   5.4999   0.0000  0.05555   9.1413E-05 -2.2040E-05  9.4033E-05  -13.555
   105   12   0.0000   5.4999   0.0556  0.05555   8.6511E-05 -1.9412E-05  8.8662E-05  -12.647
   106   12   0.0000   5.4999   0.1111  0.05555   7.1605E-05 -1.4841E-05  7.3127E-05  -11.709
   107   12   0.0000   5.4999   0.1667  0.05555   4.8135E-05 -9.2808E-06  4.9022E-05  -10.913
   108   12   0.0000   5.4999   0.2222  0.05555   1.7868E-05 -3.2022E-06  1.8153E-05  -10.160
   109   13   0.0000   5.9998  -0.2222  0.05555  -2.2120E-05  3.2031E-06  2.2351E-05  171.761
   110   13   0.0000   5.9998  -0.1667  0.05555  -5.9602E-05  9.4406E-06  6.0345E-05  170.999
   111   13   0.0000   5.9998  -0.1111  0.05555  -8.8690E-05  1.5323E-05  9.0004E-05  170.197
   112   13   0.0000   5.9998  -0.0556  0.05555  -1.0720E-04  2.0340E-05  1.0912E-04  169.257
   113   13   0.0000   5.9998   0.0000  0.05555  -1.1334E-04  2.3374E-05  1.1572E-04  168.347
   114   13   0.0000   5.9998   0.0556  0.05555  -1.0720E-04  2.0340E-05  1.0912E-04  169.257
   115   13   0.0000   5.9998   0.1111  0.05555  -8.8690E-05  1.5323E-05  9.0004E-05  170.197
   116   13   0.0000   5.9998   0.1667  0.05555  -5.9602E-05  9.4406E-06  6.0345E-05  170.999
   117   13   0.0000   5.9998   0.2222  0.05555  -2.2120E-05  3.2031E-06  2.2351E-05  171.761
   118   14   0.0000   6.4998  -0.2222  0.05555   2.8568E-05 -2.8566E-06  2.8711E-05   -5.710
   119   14   0.0000   6.4998  -0.1667  0.05555   7.6995E-05 -8.7470E-06  7.7491E-05   -6.481
   120   14   0.0000   6.4998  -0.1111  0.05555   1.1462E-04 -1.4663E-05  1.1555E-04   -7.290
   121   14   0.0000   6.4998  -0.0556  0.05555   1.3863E-04 -2.0063E-05  1.4007E-04   -8.235
   122   14   0.0000   6.4998   0.0000  0.05555   1.4666E-04 -2.3611E-05  1.4855E-04   -9.146
   123   14   0.0000   6.4998   0.0556  0.05555   1.3863E-04 -2.0063E-05  1.4007E-04   -8.235
   124   14   0.0000   6.4998   0.1111  0.05555   1.1462E-04 -1.4663E-05  1.1555E-04   -7.290
   125   14   0.0000   6.4998   0.1667  0.05555   7.6995E-05 -8.7470E-06  7.7491E-05   -6.481
   126   14   0.0000   6.4998   0.2222  0.05555   2.8568E-05 -2.8566E-06  2.8711E-05   -5.710
   127   15   0.0000   6.9998  -0.2222  0.05555  -3.9180E-05  1.5289E-06  3.9210E-05  177.765
   128   15   0.0000   6.9998  -0.1667  0.05555  -1.0563E-04  5.5688E-06  1.0578E-04  176.982
   129   15   0.0000   6.9998  -0.1111  0.05555  -1.5733E-04  1.0547E-05  1.5768E-04  176.165
   130   15   0.0000   6.9998  -0.0556  0.05555  -1.9044E-04  1.5943E-05  1.9111E-04  175.215
   131   15   0.0000   6.9998   0.0000  0.05555  -2.0166E-04  2.0120E-05  2.0266E-04  174.302
   132   15   0.0000   6.9998   0.0556  0.05555  -1.9044E-04  1.5943E-05  1.9111E-04  175.215
   133   15   0.0000   6.9998   0.1111  0.05555  -1.5733E-04  1.0547E-05  1.5768E-04  176.165
   134   15   0.0000   6.9998   0.1667  0.05555  -1.0563E-04  5.5688E-06  1.0578E-04  176.982
   135   15   0.0000   6.9998   0.2222  0.05555  -3.9180E-05  1.5289E-06  3.9210E-05  177.765
   136   16   0.0000   7.4998  -0.2222  0.05555   5.8914E-05  2.9520E-06  5.8987E-05    2.869
   137   16   0.0000   7.4998  -0.1667  0.05555   1.5890E-04  5.7492E-06  1.5900E-04    2.072
   138   16   0.0000   7.4998  -0.1111  0.05555   2.3685E-04  5.1472E-06  2.3691E-04    1.245
   139   16   0.0000   7.4998  -0.0556  0.05555   2.8704E-04  1.4469E-06  2.8705E-04    0.289
   140   16   0.0000   7.4998   0.0000  0.05555   3.0435E-04 -3.3240E-06  3.0437E-04   -0.626
   141   16   0.0000   7.4998   0.0556  0.05555   2.8704E-04  1.4469E-06  2.8705E-04    0.289
   142   16   0.0000   7.4998   0.1111  0.05555   2.3685E-04  5.1472E-06  2.3691E-04    1.245
   143   16   0.0000   7.4998   0.1667  0.05555   1.5890E-04  5.7492E-06  1.5900E-04    2.072
   144   16   0.0000   7.4998   0.2222  0.05555   5.8914E-05  2.9520E-06  5.8987E-05    2.869
   145   17   0.0000   7.9998  -0.2222  0.05555  -1.0403E-04 -2.0583E-05  1.0605E-04 -168.808
   146   17   0.0000   7.9998  -0.1667  0.05555  -2.8071E-04 -5.1492E-05  2.8540E-04 -169.606
   147   17   0.0000   7.9998  -0.1111  0.05555  -4.1887E-04 -7.0572E-05  4.2477E-04 -170.437
   148   17   0.0000   7.9998  -0.0556  0.05555  -5.0858E-04 -7.6949E-05  5.1437E-04 -171.396
   149   17   0.0000   7.9998   0.0000  0.05555  -5.4040E-04 -7.2947E-05  5.4530E-04 -172.312
   150   17   0.0000   7.9998   0.0556  0.05555  -5.0858E-04 -7.6949E-05  5.1437E-04 -171.396
   151   17   0.0000   7.9998   0.1111  0.05555  -4.1887E-04 -7.0572E-05  4.2477E-04 -170.437
   152   17   0.0000   7.9998   0.1667  0.05555  -2.8071E-04 -5.1492E-05  2.8540E-04 -169.606
   153   17   0.0000   7.9998   0.2222  0.05555  -1.0403E-04 -2.0583E-05  1.0605E-04 -168.808
   154   18   0.0000   8.4998  -0.2222  0.05555   2.7249E-04  1.2810E-04  3.0110E-04   25.179
   155   18   0.0000   8.4998  -0.1667  0.05555   7.3458E-04  3.3651E-04  8.0799E-04   24.612
   156   18   0.0000   8.4998  -0.1111  0.05555   1.0968E-03  4.8691E-04  1.2000E-03   23.938
   157   18   0.0000   8.4998  -0.0556  0.05555   1.3352E-03  5.6862E-04  1.4512E-03   23.068
   158   18   0.0000   8.4998   0.0000  0.05555   1.4240E-03  5.8057E-04  1.5378E-03   22.180
   159   18   0.0000   8.4998   0.0556  0.05555   1.3352E-03  5.6862E-04  1.4512E-03   23.068
   160   18   0.0000   8.4998   0.1111  0.05555   1.0968E-03  4.8691E-04  1.2000E-03   23.938
   161   18   0.0000   8.4998   0.1667  0.05555   7.3458E-04  3.3651E-04  8.0799E-04   24.612
   162   18   0.0000   8.4998   0.2222  0.05555   2.7249E-04  1.2810E-04  3.0110E-04   25.179
   163   19   0.0000   8.9998  -0.2222  0.05555   1.4219E-03 -4.1739E-04  1.4819E-03  -16.359
   164   19   0.0000   8.9998  -0.1667  0.05555   3.8208E-03 -1.0584E-03  3.9646E-03  -15.484
   165   19   0.0000   8.9998  -0.1111  0.05555   5.6748E-03 -1.4595E-03  5.8595E-03  -14.423
   166   19   0.0000   8.9998  -0.0556  0.05555   6.8519E-03 -1.5854E-03  7.0330E-03  -13.028
   167   19   0.0000   8.9998   0.0000  0.05555   7.2415E-03 -1.4836E-03  7.3919E-03  -11.578
   168   19   0.0000   8.9998   0.0556  0.05555   6.8519E-03 -1.5854E-03  7.0330E-03  -13.028
   169   19   0.0000   8.9998   0.1111  0.05555   5.6748E-03 -1.4595E-03  5.8595E-03  -14.423
   170   19   0.0000   8.9998   0.1667  0.05555   3.8208E-03 -1.0584E-03  3.9646E-03  -15.484
   171   19   0.0000   8.9998   0.2222  0.05555   1.4219E-03 -4.1739E-04  1.4819E-03  -16.359
   172   20   0.0000   9.4998  -0.2222  0.05555   2.8638E-04  1.5042E-04  3.2348E-04   27.711
   173   20   0.0000   9.4998  -0.1667  0.05555   7.7245E-04  3.9602E-04  8.6805E-04   27.143
   174   20   0.0000   9.4998  -0.1111  0.05555   1.1541E-03  5.7463E-04  1.2892E-03   26.469
   175   20   0.0000   9.4998  -0.0556  0.05555   1.4061E-03  6.7364E-04  1.5591E-03   25.599
   176   20   0.0000   9.4998   0.0000  0.05555   1.5008E-03  6.9068E-04  1.6521E-03   24.712
   177   20   0.0000   9.4998   0.0556  0.05555   1.4061E-03  6.7364E-04  1.5591E-03   25.599
   178   20   0.0000   9.4998   0.1111  0.05555   1.1541E-03  5.7463E-04  1.2892E-03   26.469
   179   20   0.0000   9.4998   0.1667  0.05555   7.7245E-04  3.9602E-04  8.6805E-04   27.143
   180   20   0.0000   9.4998   0.2222  0.05555   2.8638E-04  1.5042E-04  3.2348E-04   27.711



                                        - - - POWER BUDGET - - -

                                           INPUT POWER   = 3.6208E-03 WATTS
                                           RADIATED POWER= 2.1148E-03 WATTS
                                           STRUCTURE LOSS= 1.5060E-03 WATTS
                                           NETWORK LOSS  = 0.0000E+00 WATTS
                                           EFFICIENCY    =  58.41 PERCENT



                                                - - - RADIATION PATTERNS - - -

  - - ANGLES - -           - POWER GAINS -       - - - POLARIZATION - - -    - - - E(THETA) - - -    - - - E(PHI) - - -
  THETA     PHI        VERT.   HOR.    TOTAL      AXIAL     TILT   SENSE     MAGNITUDE    PHASE      MAGNITUDE    PHASE 
 DEGREES  DEGREES       DB      DB      DB        RATIO     DEG.              VOLTS/M    DEGREES      VOLTS/M    DEGREES
 -180.00     0.00    -999.99 -999.99 -999.99    0.00000     0.00            4.77481E-12    87.19    0.00000E+00     0.00
 -175.00     0.00     -21.14 -999.99  -21.14    0.00000     0.00  LINEAR    4.08521E-02   -92.81    0.00000E+00     0.00
 -170.00     0.00     -15.10 -999.99  -15.10    0.00000     0.00  LINEAR    8.18692E-02   -92.81    0.00000E+00     0.00
 -165.00     0.00     -11.56 -999.99  -11.56    0.00000     0.00  LINEAR    1.23189E-01   -92.82    0.00000E+00     0.00
 -160.00     0.00      -9.02 -999.99   -9.02    0.00000     0.00  LINEAR    1.64894E-01   -92.84    0.00000E+00     0.00
 -155.00     0.00      -7.05 -999.99   -7.05    0.00000     0.00  LINEAR    2.06991E-01   -92.85    0.00000E+00     0.00
 -150.00     0.00      -5.43 -999.99   -5.43    0.00000     0.00  LINEAR    2.49384E-01   -92.87    0.00000E+00     0.00
 -145.00     0.00      -4.06 -999.99   -4.06    0.00000     0.00  LINEAR    2.91861E-01   -92.89    0.00000E+00     0.00
 -140.00     0.00      -2.89 -999.99   -2.89    0.00000     0.00  LINEAR    3.34083E-01   -92.92    0.00000E+00     0.00
 -135.00     0.00      -1.87 -999.99   -1.87    0.00000     0.00  LINEAR    3.75581E-01   -92.94    0.00000E+00     0.00
 -130.00     0.00      -0.99 -999.99   -0.99    0.00000     0.00  LINEAR    4.15763E-01   -92.96    0.00000E+00     0.00
 -125.00     0.00      -0.23 -999.99   -0.23    0.00000     0.00  LINEAR    4.53932E-01   -92.98    0.00000E+00     0.00
 -120.00     0.00       0.43 -999.99    0.43    0.00000     0.00  LINEAR    4.89312E-01   -93.00    0.00000E+00     0.00
 -115.00     0.00       0.97 -999.99    0.97    0.00000     0.00  LINEAR    5.21086E-01   -93.01    0.00000E+00     0.00
 -110.00     0.00       1.42 -999.99    1.42    0.00000     0.00  LINEAR    5.48444E-01   -93.03    0.00000E+00     0.00
 -105.00     0.00       1.76 -999.99    1.76    0.00000     0.00  LINEAR    5.70628E-01   -93.04    0.00000E+00     0.00
 -100.00     0.00       2.01 -999.99    2.01    0.00000     0.00  LINEAR    5.86985E-01   -93.05    0.00000E+00     0.00
  -95.00     0.00       2.15 -999.99    2.15    0.00000     0.00  LINEAR    5.97012E-01   -93.05    0.00000E+00     0.00
  -90.00     0.00       2.20 -999.99    2.20    0.00000     0.00  LINEAR    6.00390E-01   -93.05    0.00000E+00     0.00
  -85.00     0.00       2.15 -999.99    2.15    0.00000     0.00  LINEAR    5.97012E-01   -93.05    0.00000E+00     0.00
  -80.00     0.00       2.01 -999.99    2.01    0.00000     0.00  LINEAR    5.86985E-01   -93.05    0.00000E+00     0.00
  -75.00     0.00       1.76 -999.99    1.76    0.00000     0.00  LINEAR    5.70628E-01   -93.04    0.00000E+00     0.00
  -70.00     0.00       1.42 -999.99    1.42    0.00000     0.00  LINEAR    5.48444E-01   -93.03    0.00000E+00     0.00
  -65.00     0.00       0.97 -999.99    0.97    0.00000     0.00  LINEAR    5.21086E-01   -93.01    0.00000E+00     0.00
  -60.00     0.00       0.43 -999.99    0.43    0.00000     0.00  LINEAR    4.89312E-01   -93.00    0.00000E+00     0.00
  -55.00     0.00      -0.23 -999.99   -0.23    0.00000     0.00  LINEAR    4.53932E-01   -92.98    0.00000E+00     0.00
  -50.00     0.00      -0.99 -999.99   -0.99    0.00000     0.00  LINEAR    4.15763E-01   -92.96    0.00000E+00     0.00
  -45.00     0.00      -1.87 -999.99   -1.87    0.00000     0.00  LINEAR    3.75581E-01   -92.94    0.00000E+00     0.00
  -40.00     0.00      -2.89 -999.99   -2.89    0.00000     0.00  LINEAR    3.34083E-01   -92.92    0.00000E+00     0.00
  -35.00     0.00      -4.06 -999.99   -4.06    0.00000     0.00  LINEAR    2.91861E-01   -92.89    0.00000E+00     0.00
  -30.00     0.00      -5.43 -999.99   -5.43    0.00000     0.00  LINEAR    2.49384E-01   -92.87    0.00000E+00     0.00
  -25.00     0.00      -7.05 -999.99   -7.05    0.00000     0.00  LINEAR    2.06991E-01   -92.85    0.00000E+00     0.00
  -20.00     0.00      -9.02 -999.99   -9.02    0.00000     0.00  LINEAR    1.64894E-01   -92.84    0.00000E+00     0.00
  -15.00     0.00     -11.56 -999.99  -11.56    0.00000     0.00  LINEAR    1.23189E-01   -92.82    0.00000E+00     0.00
  -10.00     0.00     -15.10 -999.99  -15.10    0.00000     0.00  LINEAR    8.18692E-02   -92.81    0.00000E+00     0.00
   -5.00     0.00     -21.14 -999.99  -21.14    0.00000     0.00  LINEAR    4.08521E-02   -92.81    0.00000E+00     0.00
    0.00     0.00    -999.99 -999.99 -999.99    0.00000     0.00            0.00000E+00     0.00    0.00000E+00     0.00
 -180.00     5.00    -999.99 -999.99 -999.99    0.00000     0.00            4.77481E-12    87.19    0.00000E+00     0.00
 -175.00     5.00     -21.13 -999.99  -21.13    0.00000     0.00  LINEAR    4.08899E-02  -117.56    0.00000E+00     0.00
 -170.00     5.00     -15.09 -999.99  -15.09    0.00000     0.00  LINEAR    8.20403E-02  -142.13    0.00000E+00     0.00
 -165.00     5.00     -11.53 -999.99  -11.53    0.00000     0.00  LINEAR    1.23603E-01  -166.31    0.00000E+00     0.00
 -160.00     5.00      -8.98 -999.99   -8.98    0.00000     0.00  LINEAR    1.65649E-01   170.09    0.00000E+00     0.00
 -155.00     5.00      -7.00 -999.99   -7.00    0.00000     0.00  LINEAR    2.08143E-01   147.24    0.00000E+00     0.00
 -150.00     5.00      -5.38 -999.99   -5.38    0.00000     0.00  LINEAR    2.50937E-01   125.31    0.00000E+00     0.00
 -145.00     5.00      -4.01 -999.99   -4.01    0.00000     0.00  LINEAR    2.93762E-01   104.46    0.00000E+00     0.00
 -140.00     5.00      -2.83 -999.99   -2.83    0.00000     0.00  LINEAR    3.36234E-01    84.85    0.00000E+00     0.00
 -135.00     5.00      -1.82 -999.99   -1.82    0.00000     0.00  LINEAR    3.77862E-01    66.62    0.00000E+00     0.00
 -130.00     5.00      -0.94 -999.99   -0.94    0.00000     0.00  LINEAR    4.18055E-01    49.90    0.00000E+00     0.00
 -125.00     5.00      -0.18 -999.99   -0.18    0.00000     0.00  LINEAR    4.56133E-01    34.83    0.00000E+00     0.00
 -120.00     5.00       0.46 -999.99    0.46    0.00000     0.00  LINEAR    4.91350E-01    21.52    0.00000E+00     0.00
 -115.00     5.00       1.00 -999.99    1.00    0.00000     0.00  LINEAR    5.22926E-01    10.08    0.00000E+00     0.00
 -110.00     5.00       1.44 -999.99    1.44    0.00000     0.00  LINEAR    5.50080E-01     0.58    0.00000E+00     0.00
 -105.00     5.00       1.78 -999.99    1.78    0.00000     0.00  LINEAR    5.72082E-01    -6.88    0.00000E+00     0.00
 -100.00     5.00       2.03 -999.99    2.03    0.00000     0.00  LINEAR    5.88297E-01   -12.25    0.00000E+00     0.00
  -95.00     5.00       2.17 -999.99    2.17    0.00000     0.00  LINEAR    5.98234E-01   -15.49    0.00000E+00     0.00
  -90.00     5.00       2.22 -999.99    2.22    0.00000     0.00  LINEAR    6.01582E-01   -16.57    0.00000E+00     0.00
  -85.00     5.00       2.17 -999.99    2.17    0.00000     0.00  LINEAR    5.98234E-01   -15.49    0.00000E+00     0.00
  -80.00     5.00       2.03 -999.99    2.03    0.00000     0.00  LINEAR    5.88297E-01   -12.25    0.00000E+00     0.00
  -75.00     5.00       1.78 -999.99    1.78    0.00000     0.00  LINEAR    5.72082E-01    -6.88    0.00000E+00     0.00
  -70.00     5.00       1.44 -999.99    1.44    0.00000     0.00  LINEAR    5.50080E-01     0.58    0.00000E+00     0.00
  -65.00     5.00       1.00 -999.99    1.00    0.00000     0.00  LINEAR    5.22926E-01    10.08    0.00000E+00     0.00
  -60.00     5.00       0.46 -999.99    0.46    0.00000     0.00  LINEAR    4.91350E-01    21.52    0.00000E+00     0.00
  -55.00     5.00      -0.18 -999.99   -0.18    0.00000     0.00  LINEAR    4.56133E-01    34.83    0.00000E+00     0.00
  -50.00     5.00      -0.94 -999.99   -0.94    0.00000     0.00  LINEAR    4.18055E-01    49.90    0.00000E+00     0.00
  -45.00     5.00      -1.82 -999.99   -1.82    0.00000     0.00  LINEAR    3.77862E-01    66.62    0.00000E+00     0.00
  -40.00     5.00      -2.83 -999.99   -2.83    0.00000     0.00  LINEAR    3.36234E-01    84.85    0.00000E+00     0.00
  -35.00     5.00      -4.01 -999.99   -4.01    0.00000     0.00  LINEAR    2.93762E-01   104.46    0.00000E+00     0.00
  -30.00     5.00      -5.38 -999.99   -5.38    0.00000     0.00  LINEAR    2.50937E-01   125.31    0.00000E+00     0.00
  -25.00     5.00      -7.00 -999.99   -7.00    0.00000     0.00  LINEAR    2.08143E-01   147.24    0.00000E+00     0.00
  -20.00     5.00      -8.98 -999.99   -8.98    0.00000     0.00  LINEAR    1.65649E-01   170.09    0.00000E+00     0.00
  -15.00     5.00     -11.53 -999.99  -11.53    0.00000     0.00  LINEAR    1.23603E-01  -166.31    0.00000E+00     0.00
  -10.00     5.00     -15.09 -999.99  -15.09    0.00000     0.00  LINEAR    8.20403E-02  -142.13    0.00000E+00     0.00
   -5.00     5.00     -21.13 -999.99  -21.13    0.00000     0.00  LINEAR    4.08899E-02  -117.56    0.00000E+00     0.00
    0.00     5.00    -999.99 -999.99 -999.99    0.00000     0.00            0.00000E+00     0.00    0.00000E+00     0.00
 -180.00    10.00    -999.99 -999.99 -999.99    0.00000     0.00            4.77481E-12    87.19    0.00000E+00     0.00
 -175.00    10.00     -21.12 -999.99  -21.12    0.00000     0.00  LINEAR    4.09375E-02  -142.12    0.00000E+00     0.00
 -170.00    10.00     -15.06 -999.99  -15.06    0.00000     0.00  LINEAR    8.22475E-02   168.99    0.00000E+00     0.00
 -165.00    10.00     -11.50 -999.99  -11.50    0.00000     0.00  LINEAR    1.23965E-01   120.92    0.00000E+00     0.00
 -160.00    10.00      -8.97 -999.99   -8.97    0.00000     0.00  LINEAR    1.65919E-01    73.98    0.00000E+00     0.00
 -155.00    10.00      -7.01 -999.99   -7.01    0.00000     0.00  LINEAR    2.07912E-01    28.47    0.00000E+00     0.00
 -150.00    10.00      -5.41 -999.99   -5.41    0.00000     0.00  LINEAR    2.49863E-01   -15.31    0.00000E+00     0.00
 -145.00    10.00      -4.07 -999.99   -4.07    0.00000     0.00  LINEAR    2.91765E-01   -57.01    0.00000E+00     0.00
 -140.00    10.00      -2.90 -999.99   -2.90    0.00000     0.00  LINEAR    3.33501E-01   -96.28    0.00000E+00     0.00
 -135.00    10.00      -1.89 -999.99   -1.89    0.00000     0.00  LINEAR    3.74687E-01  -132.76    0.00000E+00     0.00
 -130.00    10.00      -1.01 -999.99   -1.01    0.00000     0.00  LINEAR    4.14649E-01  -166.15    0.00000E+00     0.00
 -125.00    10.00      -0.25 -999.99   -0.25    0.00000     0.00  LINEAR    4.52535E-01   163.78    0.00000E+00     0.00
 -120.00    10.00       0.39 -999.99    0.39    0.00000     0.00  LINEAR    4.87449E-01   137.28    0.00000E+00     0.00
 -115.00    10.00       0.93 -999.99    0.93    0.00000     0.00  LINEAR    5.18553E-01   114.51    0.00000E+00     0.00
 -110.00    10.00       1.36 -999.99    1.36    0.00000     0.00  LINEAR    5.45107E-01    95.64    0.00000E+00     0.00
 -105.00    10.00       1.70 -999.99    1.70    0.00000     0.00  LINEAR    5.66480E-01    80.81    0.00000E+00     0.00
 -100.00    10.00       1.93 -999.99    1.93    0.00000     0.00  LINEAR    5.82150E-01    70.13    0.00000E+00     0.00
  -95.00    10.00       2.08 -999.99    2.08    0.00000     0.00  LINEAR    5.91719E-01    63.69    0.00000E+00     0.00
  -90.00    10.00       2.12 -999.99    2.12    0.00000     0.00  LINEAR    5.94937E-01    61.54    0.00000E+00     0.00
  -85.00    10.00       2.08 -999.99    2.08    0.00000     0.00  LINEAR    5.91719E-01    63.69    0.00000E+00     0.00
  -80.00    10.00       1.93 -999.99    1.93    0.00000     0.00  LINEAR    5.82150E-01    70.13    0.00000E+00     0.00
  -75.00    10.00       1.70 -999.99    1.70    0.00000     0.00  LINEAR    5.66480E-01    80.81    0.00000E+00     0.00
  -70.00    10.00       1.36 -999.99    1.36    0.00000     0.00  LINEAR    5.45107E-01    95.64    0.00000E+00     0.00
  -65.00    10.00       0.93 -999.99    0.93    0.00000     0.00  LINEAR    5.18553E-01   114.51    0.00000E+00     0.00
  -60.00    10.00       0.39 -999.99    0.39    0.00000     0.00  LINEAR    4.87449E-01   137.28    0.00000E+00     0.00
  -55.00    10.00      -0.25 -999.99   -0.25    0.00000     0.00  LINEAR    4.52535E-01   163.78    0.00000E+00     0.00
  -50.00    10.00      -1.01 -999.99   -1.01    0.00000     0.00  LINEAR    4.14649E-01  -166.15    0.00000E+00     0.00
  -45.00    10.00      -1.89 -999.99   -1.89    0.00000     0.00  LINEAR    3.74687E-01  -132.76    0.00000E+00     0.00
  -40.00    10.00      -2.90 -999.99   -2.90    0.00000     0.00  LINEAR    3.33501E-01   -96.28    0.00000E+00     0.00
  -35.00    10.00      -4.07 -999.99   -4.07    0.00000     0.00  LINEAR    2.91765E-01   -57.01    0.00000E+00     0.00
  -30.00    10.00      -5.41 -999.99   -5.41    0.00000     0.00  LINEAR    2.49863E-01   -15.31    0.00000E+00     0.00
  -25.00    10.00      -7.01 -999.99   -7.01    0.00000     0.00  LINEAR    2.07912E-01    28.47    0.00000E+00     0.00
  -20.00    10.00      -8.97 -999.99   -8.97    0.00000     0.00  LINEAR    1.65919E-01    73.98    0.00000E+00     0.00
  -15.00    10.00     -11.50 -999.99  -11.50    0.00000     0.00  LINEAR    1.23965E-01   120.92    0.00000E+00     0.00
  -10.00    10.00     -15.06 -999.99  -15.06    0.00000     0.00  LINEAR    8.22475E-02   168.99    0.00000E+00     0.00
   -5.00    10.00     -21.12 -999.99  -21.12    0.00000     0.00  LINEAR    4.09375E-02  -142.12    0.00000E+00     0.00
    0.00    10.00    -999.99 -999.99 -999.99    0.00000     0.00            0.00000E+00     0.00    0.00000E+00     0.00
 -180.00    15.00    -999.99 -999.99 -999.99    0.00000     0.00            4.77481E-12    87.19    0.00000E+00     0.00
 -175.00    15.00     -21.11 -999.99  -21.11    0.00000     0.00  LINEAR    4.09893E-02  -166.29    0.00000E+00     0.00
 -170.00    15.00     -15.05 -999.99  -15.05    0.00000     0.00  LINEAR    8.23846E-02   120.93    0.00000E+00     0.00
 -165.00    15.00     -11.51 -999.99  -11.51    0.00000     0.00  LINEAR    1.23856E-01    49.31    0.00000E+00     0.00
 -160.00    15.00      -9.01 -999.99   -9.01    0.00000     0.00  LINEAR    1.65153E-01   -20.81    0.00000E+00     0.00
 -155.00    15.00      -7.06 -999.99   -7.06    0.00000     0.00  LINEAR    2.06660E-01   -88.91    0.00000E+00     0.00
 -150.00    15.00      -5.45 -999.99   -5.45    0.00000     0.00  LINEAR    2.48715E-01  -154.29    0.00000E+00     0.00
 -145.00    15.00      -4.10 -999.99   -4.10    0.00000     0.00  LINEAR    2.90769E-01   143.66    0.00000E+00     0.00
 -140.00    15.00      -2.95 -999.99   -2.95    0.00000     0.00  LINEAR    3.31715E-01    85.37    0.00000E+00     0.00
 -135.00    15.00      -1.98 -999.99   -1.98    0.00000     0.00  LINEAR    3.70807E-01    31.15    0.00000E+00     0.00
 -130.00    15.00      -1.15 -999.99   -1.15    0.00000     0.00  LINEAR    4.07926E-01   -18.64    0.00000E+00     0.00
 -125.00    15.00      -0.44 -999.99   -0.44    0.00000     0.00  LINEAR    4.43075E-01   -63.59    0.00000E+00     0.00
 -120.00    15.00       0.18 -999.99    0.18    0.00000     0.00  LINEAR    4.75864E-01  -103.28    0.00000E+00     0.00
 -115.00    15.00       0.71 -999.99    0.71    0.00000     0.00  LINEAR    5.05480E-01  -137.37    0.00000E+00     0.00
 -110.00    15.00       1.13 -999.99    1.13    0.00000     0.00  LINEAR    5.30975E-01  -165.59    0.00000E+00     0.00
 -105.00    15.00       1.46 -999.99    1.46    0.00000     0.00  LINEAR    5.51536E-01   172.26    0.00000E+00     0.00
 -100.00    15.00       1.70 -999.99    1.70    0.00000     0.00  LINEAR    5.66579E-01   156.32    0.00000E+00     0.00
  -95.00    15.00       1.84 -999.99    1.84    0.00000     0.00  LINEAR    5.75736E-01   146.72    0.00000E+00     0.00
  -90.00    15.00       1.88 -999.99    1.88    0.00000     0.00  LINEAR    5.78810E-01   143.51    0.00000E+00     0.00
  -85.00    15.00       1.84 -999.99    1.84    0.00000     0.00  LINEAR    5.75736E-01   146.72    0.00000E+00     0.00
  -80.00    15.00       1.70 -999.99    1.70    0.00000     0.00  LINEAR    5.66579E-01   156.32    0.00000E+00     0.00
  -75.00    15.00       1.46 -999.99    1.46    0.00000     0.00  LINEAR    5.51536E-01   172.26    0.00000E+00     0.00
  -70.00    15.00       1.13 -999.99    1.13    0.00000     0.00  LINEAR    5.30975E-01  -165.59    0.00000E+00     0.00
  -65.00    15.00       0.71 -999.99    0.71    0.00000     0.00  LINEAR    5.05480E-01  -137.37    0.00000E+00     0.00
  -60.00    15.00       0.18 -999.99    0.18    0.00000     0.00  LINEAR    4.75864E-01  -103.28    0.00000E+00     0.00
  -55.00    15.00      -0.44 -999.99   -0.44    0.00000     0.00  LINEAR    4.43075E-01   -63.59    0.00000E+00     0.00
  -50.00    15.00      -1.15 -999.99   -1.15    0.00000     0.00  LINEAR    4.07926E-01   -18.64    0.00000E+00     0.00
  -45.00    15.00      -1.98 -999.99   -1.98    0.00000     0.00  LINEAR    3.70807E-01    31.15    0.00000E+00     0.00
  -40.00    15.00      -2.95 -999.99   -2.95    0.00000     0.00  LINEAR    3.31715E-01    85.37    0.00000E+00     0.00
  -35.00    15.00      -4.10 -999.99   -4.10    0.00000     0.00  LINEAR    2.90769E-01   143.66    0.00000E+00     0.00
  -30.00    15.00      -5.45 -999.99   -5.45    0.00000     0.00  LINEAR    2.48715E-01  -154.29    0.00000E+00     0.00
  -25.00    15.00      -7.06 -999.99   -7.06    0.00000     0.00  LINEAR    2.06660E-01   -88.91    0.00000E+00     0.00
  -20.00    15.00      -9.01 -999.99   -9.01    0.00000     0.00  LINEAR    1.65153E-01   -20.81    0.00000E+00     0.00
  -15.00    15.00     -11.51 -999.99  -11.51    0.00000     0.00  LINEAR    1.23856E-01    49.31    0.00000E+00     0.00
  -10.00    15.00     -15.05 -999.99  -15.05    0.00000     0.00  LINEAR    8.23846E-02   120.93    0.00000E+00     0.00
   -5.00    15.00     -21.11 -999.99  -21.11    0.00000     0.00  LINEAR    4.09893E-02  -166.29    0.00000E+00     0.00
    0.00    15.00    -999.99 -999.99 -999.99    0.00000     0.00            0.00000E+00     0.00    0.00000E+00     0.00
 -180.00    20.00    -999.99 -999.99 -999.99    0.00000     0.00            4.77481E-12    87.19    0.00000E+00     0.00
 -175.00    20.00     -21.10 -999.99  -21.10    0.00000     0.00  LINEAR    4.10386E-02   170.12    0.00000E+00     0.00
 -170.00    20.00     -15.05 -999.99  -15.05    0.00000     0.00  LINEAR    8.23768E-02    74.01    0.00000E+00     0.00
 -165.00    20.00     -11.54 -999.99  -11.54    0.00000     0.00  LINEAR    1.23381E-01   -20.80    0.00000E+00     0.00
 -160.00    20.00      -9.04 -999.99   -9.04    0.00000     0.00  LINEAR    1.64529E-01  -113.69    0.00000E+00     0.00
 -155.00    20.00      -7.08 -999.99   -7.08    0.00000     0.00  LINEAR    2.06281E-01   156.42    0.00000E+00     0.00
 -150.00    20.00      -5.50 -999.99   -5.50    0.00000     0.00  LINEAR    2.47257E-01    70.30    0.00000E+00     0.00
 -145.00    20.00      -4.22 -999.99   -4.22    0.00000     0.00  LINEAR    2.86568E-01   -11.74    0.00000E+00     0.00
 -140.00    20.00      -3.12 -999.99   -3.12    0.00000     0.00  LINEAR    3.25229E-01   -89.14    0.00000E+00     0.00
 -135.00    20.00      -2.15 -999.99   -2.15    0.00000     0.00  LINEAR    3.63643E-01  -161.04    0.00000E+00     0.00
 -130.00    20.00      -1.32 -999.99   -1.32    0.00000     0.00  LINEAR    4.00260E-01   133.24    0.00000E+00     0.00
 -125.00    20.00      -0.63 -999.99   -0.63    0.00000     0.00  LINEAR    4.33401E-01    74.08    0.00000E+00     0.00
 -120.00    20.00      -0.06 -999.99   -0.06    0.00000     0.00  LINEAR    4.62673E-01    21.79    0.00000E+00     0.00
 -115.00    20.00       0.41 -999.99    0.41    0.00000     0.00  LINEAR    4.88396E-01   -23.26    0.00000E+00     0.00
 -110.00    20.00       0.80 -999.99    0.80    0.00000     0.00  LINEAR    5.10604E-01   -60.66    0.00000E+00     0.00
 -105.00    20.00       1.10 -999.99    1.10    0.00000     0.00  LINEAR    5.28813E-01   -90.05    0.00000E+00     0.00
 -100.00    20.00       1.32 -999.99    1.32    0.00000     0.00  LINEAR    5.42353E-01  -111.20    0.00000E+00     0.00
  -95.00    20.00       1.45 -999.99    1.45    0.00000     0.00  LINEAR    5.50684E-01  -123.94    0.00000E+00     0.00
  -90.00    20.00       1.50 -999.99    1.50    0.00000     0.00  LINEAR    5.53493E-01  -128.20    0.00000E+00     0.00
  -85.00    20.00       1.45 -999.99    1.45    0.00000     0.00  LINEAR    5.50684E-01  -123.94    0.00000E+00     0.00
  -80.00    20.00       1.32 -999.99    1.32    0.00000     0.00  LINEAR    5.42353E-01  -111.20    0.00000E+00     0.00
  -75.00    20.00       1.10 -999.99    1.10    0.00000     0.00  LINEAR    5.28813E-01   -90.05    0.00000E+00     0.00
  -70.00    20.00       0.80 -999.99    0.80    0.00000     0.00  LINEAR    5.10604E-01   -60.66    0.00000E+00     0.00
  -65.00    20.00       0.41 -999.99    0.41    0.00000     0.00  LINEAR    4.88396E-01   -23.26    0.00000E+00     0.00
  -60.00    20.00      -0.06 -999.99   -0.06    0.00000     0.00  LINEAR    4.62673E-01    21.79    0.00000E+00     0.00
  -55.00    20.00      -0.63 -999.99   -0.63    0.00000     0.00  LINEAR    4.33401E-01    74.08    0.00000E+00     0.00
  -50.00    20.00      -1.32 -999.99   -1.32    0.00000     0.00  LINEAR    4.00260E-01   133.24    0.00000E+00     0.00
  -45.00    20.00      -2.15 -999.99   -2.15    0.00000     0.00  LINEAR    3.63643E-01  -161.04    0.00000E+00     0.00
  -40.00    20.00      -3.12 -999.99   -3.12    0.00000     0.00  LINEAR    3.25229E-01   -89.14    0.00000E+00     0.00
  -35.00    20.00      -4.22 -999.99   -4.22    0.00000     0.00  LINEAR    2.86568E-01   -11.74    0.00000E+00     0.00
  -30.00    20.00      -5.50 -999.99   -5.50    0.00000     0.00  LINEAR    2.47257E-01    70.30    0.00000E+00     0.00
  -25.00    20.00      -7.08 -999.99   -7.08    0.00000     0.00  LINEAR    2.06281E-01   156.42    0.00000E+00     0.00
  -20.00    20.00      -9.04 -999.99   -9.04    0.00000     0.00  LINEAR    1.64529E-01  -113.69    0.00000E+00     0.00
  -15.00    20.00     -11.54 -999.99  -11.54    0.00000     0.00  LINEAR    1.23381E-01   -20.80    0.00000E+00     0.00
  -10.00    20.00     -15.05 -999.99  -15.05    0.00000     0.00  LINEAR    8.23768E-02    74.01    0.00000E+00     0.00
   -5.00    20.00     -21.10 -999.99  -21.10    0.00000     0.00  LINEAR    4.10386E-02   170.12    0.00000E+00     0.00
    0.00    20.00    -999.99 -999.99 -999.99    0.00000     0.00            0.00000E+00     0.00    0.00000E+00     0.00
 -180.00    25.00    -999.99 -999.99 -999.99    0.00000     0.00            4.77481E-12    87.19    0.00000E+00     0.00
 -175.00    25.00     -21.09 -999.99  -21.09    0.00000     0.00  LINEAR    4.10789E-02   147.29    0.00000E+00     0.00
 -170.00    25.00     -15.07 -999.99  -15.07    0.00000     0.00  LINEAR    8.22316E-02    28.51    0.00000E+00     0.00
 -165.00    25.00     -11.57 -999.99  -11.57    0.00000     0.00  LINEAR    1.22988E-01   -88.88    0.00000E+00     0.00
 -160.00    25.00      -9.05 -999.99   -9.05    0.00000     0.00  LINEAR    1.64325E-01   156.44    0.00000E+00     0.00
 -155.00    25.00      -7.15 -999.99   -7.15    0.00000     0.00  LINEAR    2.04678E-01    45.59    0.00000E+00     0.00
 -150.00    25.00      -5.64 -999.99   -5.64    0.00000     0.00  LINEAR    2.43420E-01   -61.18    0.00000E+00     0.00
 -145.00    25.00      -4.35 -999.99   -4.35    0.00000     0.00  LINEAR    2.82512E-01  -162.82    0.00000E+00     0.00
 -140.00    25.00      -3.26 -999.99   -3.26    0.00000     0.00  LINEAR    3.20297E-01   101.87    0.00000E+00     0.00
 -135.00    25.00      -2.38 -999.99   -2.38    0.00000     0.00  LINEAR    3.54452E-01    13.24    0.00000E+00     0.00
 -130.00    25.00      -1.62 -999.99   -1.62    0.00000     0.00  LINEAR    3.86475E-01   -68.28    0.00000E+00     0.00
 -125.00    25.00      -0.95 -999.99   -0.95    0.00000     0.00  LINEAR    4.17590E-01  -141.74    0.00000E+00     0.00
 -120.00    25.00      -0.38 -999.99   -0.38    0.00000     0.00  LINEAR    4.46090E-01   153.60    0.00000E+00     0.00
 -115.00    25.00       0.08 -999.99    0.08    0.00000     0.00  LINEAR    4.70055E-01    98.14    0.00000E+00     0.00
 -110.00    25.00       0.42 -999.99    0.42    0.00000     0.00  LINEAR    4.89193E-01    52.14    0.00000E+00     0.00
 -105.00    25.00       0.68 -999.99    0.68    0.00000     0.00  LINEAR    5.04025E-01    15.91    0.00000E+00     0.00
 -100.00    25.00       0.87 -999.99    0.87    0.00000     0.00  LINEAR    5.14823E-01   -10.21    0.00000E+00     0.00
  -95.00    25.00       0.98 -999.99    0.98    0.00000     0.00  LINEAR    5.21462E-01   -25.98    0.00000E+00     0.00
  -90.00    25.00       1.02 -999.99    1.02    0.00000     0.00  LINEAR    5.23710E-01   -31.25    0.00000E+00     0.00
  -85.00    25.00       0.98 -999.99    0.98    0.00000     0.00  LINEAR    5.21462E-01   -25.98    0.00000E+00     0.00
  -80.00    25.00       0.87 -999.99    0.87    0.00000     0.00  LINEAR    5.14823E-01   -10.21    0.00000E+00     0.00
  -75.00    25.00       0.68 -999.99    0.68    0.00000     0.00  LINEAR    5.04025E-01    15.91    0.00000E+00     0.00
  -70.00    25.00       0.42 -999.99    0.42    0.00000     0.00  LINEAR    4.89193E-01    52.14    0.00000E+00     0.00
  -65.00    25.00       0.08 -999.99    0.08    0.00000     0.00  LINEAR    4.70055E-01    98.14    0.00000E+00     0.00
  -60.00    25.00      -0.38 -999.99   -0.38    0.00000     0.00  LINEAR    4.46090E-01   153.60    0.00000E+00     0.00
  -55.00    25.00      -0.95 -999.99   -0.95    0.00000     0.00  LINEAR    4.17590E-01  -141.74    0.00000E+00     0.00
  -50.00    25.00      -1.62 -999.99   -1.62    0.00000     0.00  LINEAR    3.86475E-01   -68.28    0.00000E+00     0.00
  -45.00    25.00      -2.38 -999.99   -2.38    0.00000     0.00  LINEAR    3.54452E-01    13.24    0.00000E+00     0.00
  -40.00    25.00      -3.26 -999.99   -3.26    0.00000     0.00  LINEAR    3.20297E-01   101.87    0.00000E+00     0.00
  -35.00    25.00      -4.35 -999.99   -4.35    0.00000     0.00  LINEAR    2.82512E-01  -162.82    0.00000E+00     0.00
  -30.00    25.00      -5.64 -999.99   -5.64    0.00000     0.00  LINEAR    2.43420E-01   -61.18    0.00000E+00     0.00
  -25.00    25.00      -7.15 -999.99   -7.15    0.00000     0.00  LINEAR    2.04678E-01    45.59    0.00000E+00     0.00
  -20.00    25.00      -9.05 -999.99   -9.05    0.00000     0.00  LINEAR    1.64325E-01   156.44    0.00000E+00     0.00
  -15.00    25.00     -11.57 -999.99  -11.57    0.00000     0.00  LINEAR    1.22988E-01   -88.88    0.00000E+00     0.00
  -10.00    25.00     -15.07 -999.99  -15.07    0.00000     0.00  LINEAR    8.22316E-02    28.51    0.00000E+00     0.00
   -5.00    25.00     -21.09 -999.99  -21.09    0.00000     0.00  LINEAR    4.10789E-02   147.29    0.00000E+00     0.00
    0.00    25.00    -999.99 -999.99 -999.99    0.00000     0.00            0.00000E+00     0.00    0.00000E+00     0.00
 -180.00    30.00    -999.99 -999.99 -999.99    0.00000     0.00            4.77481E-12    87.19    0.00000E+00     0.00
 -175.00    30.00     -21.09 -999.99  -21.09    0.00000     0.00  LINEAR    4.11056E-02   125.37    0.00000E+00     0.00
 -170.00    30.00     -15.09 -999.99  -15.09    0.00000     0.00  LINEAR    8.20233E-02   -15.25    0.00000E+00     0.00
 -165.00    30.00     -11.58 -999.99  -11.58    0.00000     0.00  LINEAR    1.22851E-01  -154.24    0.00000E+00     0.00
 -160.00    30.00      -9.10 -999.99   -9.10    0.00000     0.00  LINEAR    1.63479E-01    70.34    0.00000E+00     0.00
 -155.00    30.00      -7.26 -999.99   -7.26    0.00000     0.00  LINEAR    2.02032E-01   -61.16    0.00000E+00     0.00
 -150.00    30.00      -5.73 -999.99   -5.73    0.00000     0.00  LINEAR    2.40924E-01   172.43    0.00000E+00     0.00
 -145.00    30.00      -4.50 -999.99   -4.50    0.00000     0.00  LINEAR    2.77514E-01    52.60    0.00000E+00     0.00
 -140.00    30.00      -3.51 -999.99   -3.51    0.00000     0.00  LINEAR    3.10893E-01   -60.53    0.00000E+00     0.00
 -135.00    30.00      -2.63 -999.99   -2.63    0.00000     0.00  LINEAR    3.44352E-01  -165.75    0.00000E+00     0.00
 -130.00    30.00      -1.89 -999.99   -1.89    0.00000     0.00  LINEAR    3.74942E-01    98.21    0.00000E+00     0.00
 -125.00    30.00      -1.32 -999.99   -1.32    0.00000     0.00  LINEAR    4.00327E-01    11.54    0.00000E+00     0.00
 -120.00    30.00      -0.84 -999.99   -0.84    0.00000     0.00  LINEAR    4.23180E-01   -65.26    0.00000E+00     0.00
 -115.00    30.00      -0.40 -999.99   -0.40    0.00000     0.00  LINEAR    4.44724E-01  -131.25    0.00000E+00     0.00
 -110.00    30.00      -0.05 -999.99   -0.05    0.00000     0.00  LINEAR    4.63219E-01   174.22    0.00000E+00     0.00
 -105.00    30.00       0.21 -999.99    0.21    0.00000     0.00  LINEAR    4.77223E-01   131.48    0.00000E+00     0.00
 -100.00    30.00       0.38 -999.99    0.38    0.00000     0.00  LINEAR    4.86704E-01   100.73    0.00000E+00     0.00
  -95.00    30.00       0.48 -999.99    0.48    0.00000     0.00  LINEAR    4.92161E-01    82.18    0.00000E+00     0.00
  -90.00    30.00       0.51 -999.99    0.51    0.00000     0.00  LINEAR    4.93945E-01    75.97    0.00000E+00     0.00
  -85.00    30.00       0.48 -999.99    0.48    0.00000     0.00  LINEAR    4.92161E-01    82.18    0.00000E+00     0.00
  -80.00    30.00       0.38 -999.99    0.38    0.00000     0.00  LINEAR    4.86704E-01   100.73    0.00000E+00     0.00
  -75.00    30.00       0.21 -999.99    0.21    0.00000     0.00  LINEAR    4.77223E-01   131.48    0.00000E+00     0.00
  -70.00    30.00      -0.05 -999.99   -0.05    0.00000     0.00  LINEAR    4.63219E-01   174.22    0.00000E+00     0.00
  -65.00    30.00      -0.40 -999.99   -0.40    0.00000     0.00  LINEAR    4.44724E-01  -131.25    0.00000E+00     0.00
  -60.00    30.00      -0.84 -999.99   -0.84    0.00000     0.00  LINEAR    4.23180E-01   -65.26    0.00000E+00     0.00
  -55.00    30.00      -1.32 -999.99   -1.32    0.00000     0.00  LINEAR    4.00327E-01    11.54    0.00000E+00     0.00
  -50.00    30.00      -1.89 -999.99   -1.89    0.00000     0.00  LINEAR    3.74942E-01    98.21    0.00000E+00     0.00
  -45.00    30.00      -2.63 -999.99   -2.63    0.00000     0.00  LINEAR    3.44352E-01  -165.75    0.00000E+00     0.00
  -40.00    30.00      -3.51 -999.99   -3.51    0.00000     0.00  LINEAR    3.10893E-01   -60.53    0.00000E+00     0.00
  -35.00    30.00      -4.50 -999.99   -4.50    0.00000     0.00  LINEAR    2.77514E-01    52.60    0.00000E+00     0.00
  -30.00    30.00      -5.73 -999.99   -5.73    0.00000     0.00  LINEAR    2.40924E-01   172.43    0.00000E+00     0.00
  -25.00    30.00      -7.26 -999.99   -7.26    0.00000     0.00  LINEAR    2.02032E-01   -61.16    0.00000E+00     0.00
  -20.00    30.00      -9.10 -999.99   -9.10    0.00000     0.00  LINEAR    1.63479E-01    70.34    0.00000E+00     0.00
  -15.00    30.00     -11.58 -999.99  -11.58    0.00000     0.00  LINEAR    1.22851E-01  -154.24    0.00000E+00     0.00
  -10.00    30.00     -15.09 -999.99  -15.09    0.00000     0.00  LINEAR    8.20233E-02   -15.25    0.00000E+00     0.00
   -5.00    30.00     -21.09 -999.99  -21.09    0.00000     0.00  LINEAR    4.11056E-02   125.37    0.00000E+00     0.00
    0.00    30.00    -999.99 -999.99 -999.99    0.00000     0.00            0.00000E+00     0.00    0.00000E+00     0.00
 -180.00    35.00    -999.99 -999.99 -999.99    0.00000     0.00            4.77481E-12    87.19    0.00000E+00     0.00
 -175.00    35.00     -21.09 -999.99  -21.09    0.00000     0.00  LINEAR    4.11168E-02   104.55    0.00000E+00     0.00
 -170.00    35.00     -15.11 -999.99  -15.11    0.00000     0.00  LINEAR    8.18367E-02   -56.93    0.00000E+00     0.00
 -165.00    35.00     -11.59 -999.99  -11.59    0.00000     0.00  LINEAR    1.22715E-01   143.73    0.00000E+00     0.00
 -160.00    35.00      -9.18 -999.99   -9.18    0.00000     0.00  LINEAR    1.61886E-01   -11.68    0.00000E+00     0.00
 -155.00    35.00      -7.33 -999.99   -7.33    0.00000     0.00  LINEAR    2.00338E-01  -162.78    0.00000E+00     0.00
 -150.00    35.00      -5.87 -999.99   -5.87    0.00000     0.00  LINEAR    2.37109E-01    52.62    0.00000E+00     0.00
 -145.00    35.00      -4.72 -999.99   -4.72    0.00000     0.00  LINEAR    2.70492E-01   -85.38    0.00000E+00     0.00
 -140.00    35.00      -3.71 -999.99   -3.71    0.00000     0.00  LINEAR    3.04006E-01   144.94    0.00000E+00     0.00
 -135.00    35.00      -2.93 -999.99   -2.93    0.00000     0.00  LINEAR    3.32346E-01    24.66    0.00000E+00     0.00
 -130.00    35.00      -2.29 -999.99   -2.29    0.00000     0.00  LINEAR    3.57850E-01   -86.10    0.00000E+00     0.00
[...]
  -70.00   340.00       0.36 -999.99    0.36    0.00000     0.00  LINEAR    4.85785E-01  -132.65    0.00000E+00     0.00
  -65.00   340.00      -0.01 -999.99   -0.01    0.00000     0.00  LINEAR    4.65303E-01  -169.46    0.00000E+00     0.00
  -60.00   340.00      -0.47 -999.99   -0.47    0.00000     0.00  LINEAR    4.41409E-01   146.17    0.00000E+00     0.00
  -55.00   340.00      -1.03 -999.99   -1.03    0.00000     0.00  LINEAR    4.14033E-01    94.61    0.00000E+00     0.00
  -50.00   340.00      -1.70 -999.99   -1.70    0.00000     0.00  LINEAR    3.83004E-01    36.18    0.00000E+00     0.00
  -45.00   340.00      -2.51 -999.99   -2.51    0.00000     0.00  LINEAR    3.48884E-01   -28.81    0.00000E+00     0.00
  -40.00   340.00      -3.45 -999.99   -3.45    0.00000     0.00  LINEAR    3.13213E-01   -99.97    0.00000E+00     0.00
  -35.00   340.00      -4.51 -999.99   -4.51    0.00000     0.00  LINEAR    2.77111E-01  -176.62    0.00000E+00     0.00
  -30.00   340.00      -5.76 -999.99   -5.76    0.00000     0.00  LINEAR    2.39965E-01   102.05    0.00000E+00     0.00
  -25.00   340.00      -7.30 -999.99   -7.30    0.00000     0.00  LINEAR    2.00966E-01    16.51    0.00000E+00     0.00
  -20.00   340.00      -9.22 -999.99   -9.22    0.00000     0.00  LINEAR    1.61098E-01   -72.89    0.00000E+00     0.00
  -15.00   340.00     -11.68 -999.99  -11.68    0.00000     0.00  LINEAR    1.21480E-01  -165.35    0.00000E+00     0.00
  -10.00   340.00     -15.14 -999.99  -15.14    0.00000     0.00  LINEAR    8.15039E-02   100.18    0.00000E+00     0.00
   -5.00   340.00     -21.15 -999.99  -21.15    0.00000     0.00  LINEAR    4.08012E-02     4.23    0.00000E+00     0.00
    0.00   340.00    -999.99 -999.99 -999.99    0.00000     0.00            0.00000E+00     0.00    0.00000E+00     0.00
 -180.00   345.00    -999.99 -999.99 -999.99    0.00000     0.00            4.77481E-12    87.19    0.00000E+00     0.00
 -175.00   345.00     -21.15 -999.99  -21.15    0.00000     0.00  LINEAR    4.08063E-02   -19.34    0.00000E+00     0.00
 -170.00   345.00     -15.12 -999.99  -15.12    0.00000     0.00  LINEAR    8.16978E-02    53.35    0.00000E+00     0.00
 -165.00   345.00     -11.61 -999.99  -11.61    0.00000     0.00  LINEAR    1.22395E-01   124.79    0.00000E+00     0.00
 -160.00   345.00      -9.14 -999.99   -9.14    0.00000     0.00  LINEAR    1.62606E-01  -165.37    0.00000E+00     0.00
 -155.00   345.00      -7.23 -999.99   -7.23    0.00000     0.00  LINEAR    2.02650E-01   -97.59    0.00000E+00     0.00
 -150.00   345.00      -5.66 -999.99   -5.66    0.00000     0.00  LINEAR    2.42931E-01   -32.55    0.00000E+00     0.00
 -145.00   345.00      -4.33 -999.99   -4.33    0.00000     0.00  LINEAR    2.83078E-01    29.12    0.00000E+00     0.00
 -140.00   345.00      -3.21 -999.99   -3.21    0.00000     0.00  LINEAR    3.22101E-01    87.00    0.00000E+00     0.00
 -135.00   345.00      -2.26 -999.99   -2.26    0.00000     0.00  LINEAR    3.59229E-01   140.76    0.00000E+00     0.00
 -130.00   345.00      -1.45 -999.99   -1.45    0.00000     0.00  LINEAR    3.94267E-01  -169.91    0.00000E+00     0.00
 -125.00   345.00      -0.75 -999.99   -0.75    0.00000     0.00  LINEAR    4.27221E-01  -125.42    0.00000E+00     0.00
 -120.00   345.00      -0.15 -999.99   -0.15    0.00000     0.00  LINEAR    4.57817E-01   -86.14    0.00000E+00     0.00
 -115.00   345.00       0.36 -999.99    0.36    0.00000     0.00  LINEAR    4.85404E-01   -52.41    0.00000E+00     0.00
 -110.00   345.00       0.77 -999.99    0.77    0.00000     0.00  LINEAR    5.09165E-01   -24.50    0.00000E+00     0.00
 -105.00   345.00       1.09 -999.99    1.09    0.00000     0.00  LINEAR    5.28355E-01    -2.59    0.00000E+00     0.00
 -100.00   345.00       1.32 -999.99    1.32    0.00000     0.00  LINEAR    5.42416E-01    13.16    0.00000E+00     0.00
  -95.00   345.00       1.46 -999.99    1.46    0.00000     0.00  LINEAR    5.50985E-01    22.65    0.00000E+00     0.00
  -90.00   345.00       1.50 -999.99    1.50    0.00000     0.00  LINEAR    5.53863E-01    25.82    0.00000E+00     0.00
  -85.00   345.00       1.46 -999.99    1.46    0.00000     0.00  LINEAR    5.50985E-01    22.65    0.00000E+00     0.00
  -80.00   345.00       1.32 -999.99    1.32    0.00000     0.00  LINEAR    5.42416E-01    13.16    0.00000E+00     0.00
  -75.00   345.00       1.09 -999.99    1.09    0.00000     0.00  LINEAR    5.28355E-01    -2.59    0.00000E+00     0.00
  -70.00   345.00       0.77 -999.99    0.77    0.00000     0.00  LINEAR    5.09165E-01   -24.50    0.00000E+00     0.00
  -65.00   345.00       0.36 -999.99    0.36    0.00000     0.00  LINEAR    4.85404E-01   -52.41    0.00000E+00     0.00
  -60.00   345.00      -0.15 -999.99   -0.15    0.00000     0.00  LINEAR    4.57817E-01   -86.14    0.00000E+00     0.00
  -55.00   345.00      -0.75 -999.99   -0.75    0.00000     0.00  LINEAR    4.27221E-01  -125.42    0.00000E+00     0.00
  -50.00   345.00      -1.45 -999.99   -1.45    0.00000     0.00  LINEAR    3.94267E-01  -169.91    0.00000E+00     0.00
  -45.00   345.00      -2.26 -999.99   -2.26    0.00000     0.00  LINEAR    3.59229E-01   140.76    0.00000E+00     0.00
  -40.00   345.00      -3.21 -999.99   -3.21    0.00000     0.00  LINEAR    3.22101E-01    87.00    0.00000E+00     0.00
  -35.00   345.00      -4.33 -999.99   -4.33    0.00000     0.00  LINEAR    2.83078E-01    29.12    0.00000E+00     0.00
  -30.00   345.00      -5.66 -999.99   -5.66    0.00000     0.00  LINEAR    2.42931E-01   -32.55    0.00000E+00     0.00
  -25.00   345.00      -7.23 -999.99   -7.23    0.00000     0.00  LINEAR    2.02650E-01   -97.59    0.00000E+00     0.00
  -20.00   345.00      -9.14 -999.99   -9.14    0.00000     0.00  LINEAR    1.62606E-01  -165.37    0.00000E+00     0.00
  -15.00   345.00     -11.61 -999.99  -11.61    0.00000     0.00  LINEAR    1.22395E-01   124.79    0.00000E+00     0.00
  -10.00   345.00     -15.12 -999.99  -15.12    0.00000     0.00  LINEAR    8.16978E-02    53.35    0.00000E+00     0.00
   -5.00   345.00     -21.15 -999.99  -21.15    0.00000     0.00  LINEAR    4.08063E-02   -19.34    0.00000E+00     0.00
    0.00   345.00    -999.99 -999.99 -999.99    0.00000     0.00            0.00000E+00     0.00    0.00000E+00     0.00
 -180.00   350.00    -999.99 -999.99 -999.99    0.00000     0.00            4.77481E-12    87.19    0.00000E+00     0.00
 -175.00   350.00     -21.15 -999.99  -21.15    0.00000     0.00  LINEAR    4.08129E-02   -43.50    0.00000E+00     0.00
 -170.00   350.00     -15.12 -999.99  -15.12    0.00000     0.00  LINEAR    8.17663E-02     5.34    0.00000E+00     0.00
 -165.00   350.00     -11.57 -999.99  -11.57    0.00000     0.00  LINEAR    1.22930E-01    53.34    0.00000E+00     0.00
 -160.00   350.00      -9.06 -999.99   -9.06    0.00000     0.00  LINEAR    1.64157E-01   100.16    0.00000E+00     0.00
 -155.00   350.00      -7.12 -999.99   -7.12    0.00000     0.00  LINEAR    2.05241E-01   145.50    0.00000E+00     0.00
 -150.00   350.00      -5.55 -999.99   -5.55    0.00000     0.00  LINEAR    2.46076E-01  -170.91    0.00000E+00     0.00
 -145.00   350.00      -4.22 -999.99   -4.22    0.00000     0.00  LINEAR    2.86641E-01  -129.43    0.00000E+00     0.00
 -140.00   350.00      -3.08 -999.99   -3.08    0.00000     0.00  LINEAR    3.26850E-01   -90.38    0.00000E+00     0.00
 -135.00   350.00      -2.09 -999.99   -2.09    0.00000     0.00  LINEAR    3.66388E-01   -54.12    0.00000E+00     0.00
 -130.00   350.00      -1.22 -999.99   -1.22    0.00000     0.00  LINEAR    4.04668E-01   -20.93    0.00000E+00     0.00
 -125.00   350.00      -0.48 -999.99   -0.48    0.00000     0.00  LINEAR    4.40918E-01     8.94    0.00000E+00     0.00
 -120.00   350.00       0.15 -999.99    0.15    0.00000     0.00  LINEAR    4.74305E-01    35.26    0.00000E+00     0.00
 -115.00   350.00       0.68 -999.99    0.68    0.00000     0.00  LINEAR    5.04035E-01    57.86    0.00000E+00     0.00
 -110.00   350.00       1.11 -999.99    1.11    0.00000     0.00  LINEAR    5.29401E-01    76.57    0.00000E+00     0.00
 -105.00   350.00       1.44 -999.99    1.44    0.00000     0.00  LINEAR    5.49804E-01    91.28    0.00000E+00     0.00
 -100.00   350.00       1.67 -999.99    1.67    0.00000     0.00  LINEAR    5.64753E-01   101.86    0.00000E+00     0.00
  -95.00   350.00       1.81 -999.99    1.81    0.00000     0.00  LINEAR    5.73876E-01   108.24    0.00000E+00     0.00
  -90.00   350.00       1.86 -999.99    1.86    0.00000     0.00  LINEAR    5.76944E-01   110.38    0.00000E+00     0.00
  -85.00   350.00       1.81 -999.99    1.81    0.00000     0.00  LINEAR    5.73876E-01   108.24    0.00000E+00     0.00
  -80.00   350.00       1.67 -999.99    1.67    0.00000     0.00  LINEAR    5.64753E-01   101.86    0.00000E+00     0.00
  -75.00   350.00       1.44 -999.99    1.44    0.00000     0.00  LINEAR    5.49804E-01    91.28    0.00000E+00     0.00
  -70.00   350.00       1.11 -999.99    1.11    0.00000     0.00  LINEAR    5.29401E-01    76.57    0.00000E+00     0.00
  -65.00   350.00       0.68 -999.99    0.68    0.00000     0.00  LINEAR    5.04035E-01    57.86    0.00000E+00     0.00
  -60.00   350.00       0.15 -999.99    0.15    0.00000     0.00  LINEAR    4.74305E-01    35.26    0.00000E+00     0.00
  -55.00   350.00      -0.48 -999.99   -0.48    0.00000     0.00  LINEAR    4.40918E-01     8.94    0.00000E+00     0.00
  -50.00   350.00      -1.22 -999.99   -1.22    0.00000     0.00  LINEAR    4.04668E-01   -20.93    0.00000E+00     0.00
  -45.00   350.00      -2.09 -999.99   -2.09    0.00000     0.00  LINEAR    3.66388E-01   -54.12    0.00000E+00     0.00
  -40.00   350.00      -3.08 -999.99   -3.08    0.00000     0.00  LINEAR    3.26850E-01   -90.38    0.00000E+00     0.00
  -35.00   350.00      -4.22 -999.99   -4.22    0.00000     0.00  LINEAR    2.86641E-01  -129.43    0.00000E+00     0.00
  -30.00   350.00      -5.55 -999.99   -5.55    0.00000     0.00  LINEAR    2.46076E-01  -170.91    0.00000E+00     0.00
  -25.00   350.00      -7.12 -999.99   -7.12    0.00000     0.00  LINEAR    2.05241E-01   145.50    0.00000E+00     0.00
  -20.00   350.00      -9.06 -999.99   -9.06    0.00000     0.00  LINEAR    1.64157E-01   100.16    0.00000E+00     0.00
  -15.00   350.00     -11.57 -999.99  -11.57    0.00000     0.00  LINEAR    1.22930E-01    53.34    0.00000E+00     0.00
  -10.00   350.00     -15.12 -999.99  -15.12    0.00000     0.00  LINEAR    8.17663E-02     5.34    0.00000E+00     0.00
   -5.00   350.00     -21.15 -999.99  -21.15    0.00000     0.00  LINEAR    4.08129E-02   -43.50    0.00000E+00     0.00
    0.00   350.00    -999.99 -999.99 -999.99    0.00000     0.00            0.00000E+00     0.00    0.00000E+00     0.00
 -180.00   355.00    -999.99 -999.99 -999.99    0.00000     0.00            4.77481E-12    87.19    0.00000E+00     0.00
 -175.00   355.00     -21.15 -999.99  -21.15    0.00000     0.00  LINEAR    4.08268E-02   -68.05    0.00000E+00     0.00
 -170.00   355.00     -15.11 -999.99  -15.11    0.00000     0.00  LINEAR    8.17905E-02   -43.51    0.00000E+00     0.00
 -165.00   355.00     -11.56 -999.99  -11.56    0.00000     0.00  LINEAR    1.23050E-01   -19.36    0.00000E+00     0.00
 -160.00   355.00      -9.03 -999.99   -9.03    0.00000     0.00  LINEAR    1.64687E-01     4.20    0.00000E+00     0.00
 -155.00   355.00      -7.06 -999.99   -7.06    0.00000     0.00  LINEAR    2.06679E-01    27.00    0.00000E+00     0.00
 -150.00   355.00      -5.45 -999.99   -5.45    0.00000     0.00  LINEAR    2.48889E-01    48.86    0.00000E+00     0.00
 -145.00   355.00      -4.09 -999.99   -4.09    0.00000     0.00  LINEAR    2.91059E-01    69.63    0.00000E+00     0.00
 -140.00   355.00      -2.92 -999.99   -2.92    0.00000     0.00  LINEAR    3.32819E-01    89.16    0.00000E+00     0.00
 -135.00   355.00      -1.92 -999.99   -1.92    0.00000     0.00  LINEAR    3.73688E-01   107.31    0.00000E+00     0.00
 -130.00   355.00      -1.05 -999.99   -1.05    0.00000     0.00  LINEAR    4.13091E-01   123.93    0.00000E+00     0.00
 -125.00   355.00      -0.30 -999.99   -0.30    0.00000     0.00  LINEAR    4.50369E-01   138.92    0.00000E+00     0.00
 -120.00   355.00       0.34 -999.99    0.34    0.00000     0.00  LINEAR    4.84802E-01   152.14    0.00000E+00     0.00
 -115.00   355.00       0.88 -999.99    0.88    0.00000     0.00  LINEAR    5.15638E-01   163.52    0.00000E+00     0.00
 -110.00   355.00       1.32 -999.99    1.32    0.00000     0.00  LINEAR    5.42129E-01   172.94    0.00000E+00     0.00
 -105.00   355.00       1.65 -999.99    1.65    0.00000     0.00  LINEAR    5.63575E-01  -179.65    0.00000E+00     0.00
 -100.00   355.00       1.89 -999.99    1.89    0.00000     0.00  LINEAR    5.79370E-01  -174.31    0.00000E+00     0.00
  -95.00   355.00       2.04 -999.99    2.04    0.00000     0.00  LINEAR    5.89046E-01  -171.10    0.00000E+00     0.00
  -90.00   355.00       2.08 -999.99    2.08    0.00000     0.00  LINEAR    5.92305E-01  -170.02    0.00000E+00     0.00
  -85.00   355.00       2.04 -999.99    2.04    0.00000     0.00  LINEAR    5.89046E-01  -171.10    0.00000E+00     0.00
  -80.00   355.00       1.89 -999.99    1.89    0.00000     0.00  LINEAR    5.79370E-01  -174.31    0.00000E+00     0.00
  -75.00   355.00       1.65 -999.99    1.65    0.00000     0.00  LINEAR    5.63575E-01  -179.65    0.00000E+00     0.00
  -70.00   355.00       1.32 -999.99    1.32    0.00000     0.00  LINEAR    5.42129E-01   172.94    0.00000E+00     0.00
  -65.00   355.00       0.88 -999.99    0.88    0.00000     0.00  LINEAR    5.15638E-01   163.52    0.00000E+00     0.00
  -60.00   355.00       0.34 -999.99    0.34    0.00000     0.00  LINEAR    4.84802E-01   152.14    0.00000E+00     0.00
  -55.00   355.00      -0.30 -999.99   -0.30    0.00000     0.00  LINEAR    4.50369E-01   138.92    0.00000E+00     0.00
  -50.00   355.00      -1.05 -999.99   -1.05    0.00000     0.00  LINEAR    4.13091E-01   123.93    0.00000E+00     0.00
  -45.00   355.00      -1.92 -999.99   -1.92    0.00000     0.00  LINEAR    3.73688E-01   107.31    0.00000E+00     0.00
  -40.00   355.00      -2.92 -999.99   -2.92    0.00000     0.00  LINEAR    3.32819E-01    89.16    0.00000E+00     0.00
  -35.00   355.00      -4.09 -999.99   -4.09    0.00000     0.00  LINEAR    2.91059E-01    69.63    0.00000E+00     0.00
  -30.00   355.00      -5.45 -999.99   -5.45    0.00000     0.00  LINEAR    2.48889E-01    48.86    0.00000E+00     0.00
  -25.00   355.00      -7.06 -999.99   -7.06    0.00000     0.00  LINEAR    2.06679E-01    27.00    0.00000E+00     0.00
  -20.00   355.00      -9.03 -999.99   -9.03    0.00000     0.00  LINEAR    1.64687E-01     4.20    0.00000E+00     0.00
  -15.00   355.00     -11.56 -999.99  -11.56    0.00000     0.00  LINEAR    1.23050E-01   -19.36    0.00000E+00     0.00
  -10.00   355.00     -15.11 -999.99  -15.11    0.00000     0.00  LINEAR    8.17905E-02   -43.51    0.00000E+00     0.00
   -5.00   355.00     -21.15 -999.99  -21.15    0.00000     0.00  LINEAR    4.08268E-02   -68.05    0.00000E+00     0.00
    0.00   355.00    -999.99 -999.99 -999.99    0.00000     0.00            0.00000E+00     0.00    0.00000E+00     0.00
 -180.00   360.00    -999.99 -999.99 -999.99    0.00000     0.00            4.77481E-12    87.19    0.00000E+00     0.00
 -175.00   360.00     -21.14 -999.99  -21.14    0.00000     0.00  LINEAR    4.08521E-02   -92.81    0.00000E+00     0.00
 -170.00   360.00     -15.10 -999.99  -15.10    0.00000     0.00  LINEAR    8.18692E-02   -92.81    0.00000E+00     0.00
 -165.00   360.00     -11.56 -999.99  -11.56    0.00000     0.00  LINEAR    1.23189E-01   -92.82    0.00000E+00     0.00
 -160.00   360.00      -9.02 -999.99   -9.02    0.00000     0.00  LINEAR    1.64894E-01   -92.84    0.00000E+00     0.00
 -155.00   360.00      -7.05 -999.99   -7.05    0.00000     0.00  LINEAR    2.06991E-01   -92.85    0.00000E+00     0.00
 -150.00   360.00      -5.43 -999.99   -5.43    0.00000     0.00  LINEAR    2.49384E-01   -92.87    0.00000E+00     0.00
 -145.00   360.00      -4.06 -999.99   -4.06    0.00000     0.00  LINEAR    2.91861E-01   -92.89    0.00000E+00     0.00
 -140.00   360.00      -2.89 -999.99   -2.89    0.00000     0.00  LINEAR    3.34083E-01   -92.92    0.00000E+00     0.00
 -135.00   360.00      -1.87 -999.99   -1.87    0.00000     0.00  LINEAR    3.75581E-01   -92.94    0.00000E+00     0.00
 -130.00   360.00      -0.99 -999.99   -0.99    0.00000     0.00  LINEAR    4.15763E-01   -92.96    0.00000E+00     0.00
 -125.00   360.00      -0.23 -999.99   -0.23    0.00000     0.00  LINEAR    4.53932E-01   -92.98    0.00000E+00     0.00
 -120.00   360.00       0.43 -999.99    0.43    0.00000     0.00  LINEAR    4.89312E-01   -93.00    0.00000E+00     0.00
 -115.00   360.00       0.97 -999.99    0.97    0.00000     0.00  LINEAR    5.21086E-01   -93.01    0.00000E+00     0.00
 -110.00   360.00       1.42 -999.99    1.42    0.00000     0.00  LINEAR    5.48444E-01   -93.03    0.00000E+00     0.00
 -105.00   360.00       1.76 -999.99    1.76    0.00000     0.00  LINEAR    5.70628E-01   -93.04    0.00000E+00     0.00
 -100.00   360.00       2.01 -999.99    2.01    0.00000     0.00  LINEAR    5.86985E-01   -93.05    0.00000E+00     0.00
  -95.00   360.00       2.15 -999.99    2.15    0.00000     0.00  LINEAR    5.97012E-01   -93.05    0.00000E+00     0.00
  -90.00   360.00       2.20 -999.99    2.20    0.00000     0.00  LINEAR    6.00390E-01   -93.05    0.00000E+00     0.00
  -85.00   360.00       2.15 -999.99    2.15    0.00000     0.00  LINEAR    5.97012E-01   -93.05    0.00000E+00     0.00
  -80.00   360.00       2.01 -999.99    2.01    0.00000     0.00  LINEAR    5.86985E-01   -93.05    0.00000E+00     0.00
  -75.00   360.00       1.76 -999.99    1.76    0.00000     0.00  LINEAR    5.70628E-01   -93.04    0.00000E+00     0.00
  -70.00   360.00       1.42 -999.99    1.42    0.00000     0.00  LINEAR    5.48444E-01   -93.03    0.00000E+00     0.00
  -65.00   360.00       0.97 -999.99    0.97    0.00000     0.00  LINEAR    5.21086E-01   -93.01    0.00000E+00     0.00
  -60.00   360.00       0.43 -999.99    0.43    0.00000     0.00  LINEAR    4.89312E-01   -93.00    0.00000E+00     0.00
  -55.00   360.00      -0.23 -999.99   -0.23    0.00000     0.00  LINEAR    4.53932E-01   -92.98    0.00000E+00     0.00
  -50.00   360.00      -0.99 -999.99   -0.99    0.00000     0.00  LINEAR    4.15763E-01   -92.96    0.00000E+00     0.00
  -45.00   360.00      -1.87 -999.99   -1.87    0.00000     0.00  LINEAR    3.75581E-01   -92.94    0.00000E+00     0.00
  -40.00   360.00      -2.89 -999.99   -2.89    0.00000     0.00  LINEAR    3.34083E-01   -92.92    0.00000E+00     0.00
  -35.00   360.00      -4.06 -999.99   -4.06    0.00000     0.00  LINEAR    2.91861E-01   -92.89    0.00000E+00     0.00
  -30.00   360.00      -5.43 -999.99   -5.43    0.00000     0.00  LINEAR    2.49384E-01   -92.87    0.00000E+00     0.00
  -25.00   360.00      -7.05 -999.99   -7.05    0.00000     0.00  LINEAR    2.06991E-01   -92.85    0.00000E+00     0.00
  -20.00   360.00      -9.02 -999.99   -9.02    0.00000     0.00  LINEAR    1.64894E-01   -92.84    0.00000E+00     0.00
  -15.00   360.00     -11.56 -999.99  -11.56    0.00000     0.00  LINEAR    1.23189E-01   -92.82    0.00000E+00     0.00
  -10.00   360.00     -15.10 -999.99  -15.10    0.00000     0.00  LINEAR    8.18692E-02   -92.81    0.00000E+00     0.00
   -5.00   360.00     -21.14 -999.99  -21.14    0.00000     0.00  LINEAR    4.08521E-02   -92.81    0.00000E+00     0.00
    0.00   360.00    -999.99 -999.99 -999.99    0.00000     0.00            0.00000E+00     0.00    0.00000E+00     0.00


   AVERAGE POWER GAIN= 5.81451E-01       SOLID ANGLE USED IN AVERAGING=( 4.0000)*PI STERADIANS.








 ***** DATA CARD NO. 26   EN   0    37    73  1003 -1.80000E+02  0.00000E+00  5.00000E+00  5.00000E+00  0.00000E+00  0.00000E+00

 RUN TIME =     0.344
