1



                                 *********************************************

                                    NUMERICAL ELECTROMAGNETICS CODE (NEC-2D)

                                 *********************************************




                                     - - - - COMMENTS - - - -


                                                                                                     
                          forw:-999, 0 ; back: 0, 0                                                  
                                                                                                     




                                 - - - STRUCTURE SPECIFICATION - - -

                                     COORDINATES MUST BE INPUT IN
                                     METERS OR BE SCALED TO METERS
                                     BEFORE STRUCTURE INPUT IS ENDED


  WIRE                                                                               NO. OF    FIRST  LAST     TAG
  NO.        X1         Y1         Z1          X2         Y2         Z2      RADIUS   SEG.     SEG.   SEG.     NO.
     1    0.00000    0.00000   -0.17430     0.00000    0.00000    0.17430    0.00010      9        1     9       1
     2    0.00000    0.34860   -0.17430     0.00000    0.34860    0.17430    0.00010      9       10    18       2
     3    0.00000    0.69719   -0.17430     0.00000    0.69719    0.17430    0.00010      9       19    27       3
     4    0.00000    1.04579   -0.17430     0.00000    1.04579    0.17430    0.00010      9       28    36       4
     5    0.00000    1.39438   -0.17430     0.00000    1.39438    0.17430    0.00010      9       37    45       5
     6    0.00000    1.74298   -0.17430     0.00000    1.74298    0.17430    0.00010      9       46    54       6
     7    0.00000    2.09158   -0.17430     0.00000    2.09158    0.17430    0.00010      9       55    63       7
     8    0.00000    2.44017   -0.17430     0.00000    2.44017    0.17430    0.00010      9       64    72       8
     9    0.00000    2.78877   -0.17430     0.00000    2.78877    0.17430    0.00010      9       73    81       9
    10    0.00000    3.13736   -0.17430     0.00000    3.13736    0.17430    0.00010      9       82    90      10
    11    0.00000    3.48596   -0.17430     0.00000    3.48596    0.17430    0.00010      9       91    99      11
    12    0.00000    3.83455   -0.17430     0.00000    3.83455    0.17430    0.00010      9      100   108      12
    13    0.00000    4.18315   -0.17430     0.00000    4.18315    0.17430    0.00010      9      109   117      13
    14    0.00000    4.53175   -0.17430     0.00000    4.53175    0.17430    0.00010      9      118   126      14
    15    0.00000    4.88034   -0.17430     0.00000    4.88034    0.17430    0.00010      9      127   135      15
    16    0.00000    5.22894   -0.17430     0.00000    5.22894    0.17430    0.00010      9      136   144      16
    17    0.00000    5.57753   -0.17430     0.00000    5.57753    0.17430    0.00010      9      145   153      17
    18    0.00000    5.92613   -0.17430     0.00000    5.92613    0.17430    0.00010      9      154   162      18
    19    0.00000    6.27473   -0.17430     0.00000    6.27473    0.17430    0.00010      9      163   171      19
    20    0.00000    6.62332   -0.17430     0.00000    6.62332    0.17430    0.00010      9      172   180      20

   TOTAL SEGMENTS USED=  180     NO. SEG. IN A SYMMETRIC CELL=  180     SYMMETRY FLAG=  0


         - MULTIPLE WIRE JUNCTIONS -
 JUNCTION    SEGMENTS  (- FOR END 1, + FOR END 2)
  NONE




                                 - - - - SEGMENTATION DATA - - - -

                                        COORDINATES IN METERS

                         I+ AND I- INDICATE THE SEGMENTS BEFORE AND AFTER I


  SEG.   COORDINATES OF SEG. CENTER     SEG.     ORIENTATION ANGLES    WIRE    CONNECTION DATA   TAG
  NO.       X         Y         Z       LENGTH     ALPHA     BETA      RADIUS    I-   I    I+    NO.
     1   0.00000   0.00000  -0.15493   0.03873   90.00000   0.00000   0.00010     0    1    2      1
     2   0.00000   0.00000  -0.11620   0.03873   90.00000   0.00000   0.00010     1    2    3      1
     3   0.00000   0.00000  -0.07747   0.03873   90.00000   0.00000   0.00010     2    3    4      1
     4   0.00000   0.00000  -0.03873   0.03873   90.00000   0.00000   0.00010     3    4    5      1
     5   0.00000   0.00000   0.00000   0.03873   90.00000   0.00000   0.00010     4    5    6      1
     6   0.00000   0.00000   0.03873   0.03873   90.00000   0.00000   0.00010     5    6    7      1
     7   0.00000   0.00000   0.07747   0.03873   90.00000   0.00000   0.00010     6    7    8      1
     8   0.00000   0.00000   0.11620   0.03873   90.00000   0.00000   0.00010     7    8    9      1
     9   0.00000   0.00000   0.15493   0.03873   90.00000   0.00000   0.00010     8    9    0      1
    10   0.00000   0.34860  -0.15493   0.03873   90.00000   0.00000   0.00010     0   10   11      2
    11   0.00000   0.34860  -0.11620   0.03873   90.00000   0.00000   0.00010    10   11   12      2
    12   0.00000   0.34860  -0.07747   0.03873   90.00000   0.00000   0.00010    11   12   13      2
    13   0.00000   0.34860  -0.03873   0.03873   90.00000   0.00000   0.00010    12   13   14      2
    14   0.00000   0.34860   0.00000   0.03873   90.00000   0.00000   0.00010    13   14   15      2
    15   0.00000   0.34860   0.03873   0.03873   90.00000   0.00000   0.00010    14   15   16      2
    16   0.00000   0.34860   0.07747   0.03873   90.00000   0.00000   0.00010    15   16   17      2
    17   0.00000   0.34860   0.11620   0.03873   90.00000   0.00000   0.00010    16   17   18      2
    18   0.00000   0.34860   0.15493   0.03873   90.00000   0.00000   0.00010    17   18    0      2
    19   0.00000   0.69719  -0.15493   0.03873   90.00000   0.00000   0.00010     0   19   20      3
    20   0.00000   0.69719  -0.11620   0.03873   90.00000   0.00000   0.00010    19   20   21      3
    21   0.00000   0.69719  -0.07747   0.03873   90.00000   0.00000   0.00010    20   21   22      3
    22   0.00000   0.69719  -0.03873   0.03873   90.00000   0.00000   0.00010    21   22   23      3
    23   0.00000   0.69719   0.00000   0.03873   90.00000   0.00000   0.00010    22   23   24      3
    24   0.00000   0.69719   0.03873   0.03873   90.00000   0.00000   0.00010    23   24   25      3
    25   0.00000   0.69719   0.07747   0.03873   90.00000   0.00000   0.00010    24   25   26      3
    26   0.00000   0.69719   0.11620   0.03873   90.00000   0.00000   0.00010    25   26   27      3
    27   0.00000   0.69719   0.15493   0.03873   90.00000   0.00000   0.00010    26   27    0      3
    28   0.00000   1.04579  -0.15493   0.03873   90.00000   0.00000   0.00010     0   28   29      4
    29   0.00000   1.04579  -0.11620   0.03873   90.00000   0.00000   0.00010    28   29   30      4
    30   0.00000   1.04579  -0.07747   0.03873   90.00000   0.00000   0.00010    29   30   31      4
    31   0.00000   1.04579  -0.03873   0.03873   90.00000   0.00000   0.00010    30   31   32      4
    32   0.00000   1.04579   0.00000   0.03873   90.00000   0.00000   0.00010    31   32   33      4
    33   0.00000   1.04579   0.03873   0.03873   90.00000   0.00000   0.00010    32   33   34      4
    34   0.00000   1.04579   0.07747   0.03873   90.00000   0.00000   0.00010    33   34   35      4
    35   0.00000   1.04579   0.11620   0.03873   90.00000   0.00000   0.00010    34   35   36      4
    36   0.00000   1.04579   0.15493   0.03873   90.00000   0.00000   0.00010    35   36    0      4
    37   0.00000   1.39438  -0.15493   0.03873   90.00000   0.00000   0.00010     0   37   38      5
    38   0.00000   1.39438  -0.11620   0.03873   90.00000   0.00000   0.00010    37   38   39      5
    39   0.00000   1.39438  -0.07747   0.03873   90.00000   0.00000   0.00010    38   39   40      5
    40   0.00000   1.39438  -0.03873   0.03873   90.00000   0.00000   0.00010    39   40   41      5
    41   0.00000   1.39438   0.00000   0.03873   90.00000   0.00000   0.00010    40   41   42      5
    42   0.00000   1.39438   0.03873   0.03873   90.00000   0.00000   0.00010    41   42   43      5
    43   0.00000   1.39438   0.07747   0.03873   90.00000   0.00000   0.00010    42   43   44      5
    44   0.00000   1.39438   0.11620   0.03873   90.00000   0.00000   0.00010    43   44   45      5
    45   0.00000   1.39438   0.15493   0.03873   90.00000   0.00000   0.00010    44   45    0      5
    46   0.00000   1.74298  -0.15493   0.03873   90.00000   0.00000   0.00010     0   46   47      6
    47   0.00000   1.74298  -0.11620   0.03873   90.00000   0.00000   0.00010    46   47   48      6
    48   0.00000   1.74298  -0.07747   0.03873   90.00000   0.00000   0.00010    47   48   49      6
    49   0.00000   1.74298  -0.03873   0.03873   90.00000   0.00000   0.00010    48   49   50      6
    50   0.00000   1.74298   0.00000   0.03873   90.00000   0.00000   0.00010    49   50   51      6
    51   0.00000   1.74298   0.03873   0.03873   90.00000   0.00000   0.00010    50   51   52      6
    52   0.00000   1.74298   0.07747   0.03873   90.00000   0.00000   0.00010    51   52   53      6
    53   0.00000   1.74298   0.11620   0.03873   90.00000   0.00000   0.00010    52   53   54      6
    54   0.00000   1.74298   0.15493   0.03873   90.00000   0.00000   0.00010    53   54    0      6
    55   0.00000   2.09158  -0.15493   0.03873   90.00000   0.00000   0.00010     0   55   56      7
    56   0.00000   2.09158  -0.11620   0.03873   90.00000   0.00000   0.00010    55   56   57      7
    57   0.00000   2.09158  -0.07747   0.03873   90.00000   0.00000   0.00010    56   57   58      7
    58   0.00000   2.09158  -0.03873   0.03873   90.00000   0.00000   0.00010    57   58   59      7
    59   0.00000   2.09158   0.00000   0.03873   90.00000   0.00000   0.00010    58   59   60      7
    60   0.00000   2.09158   0.03873   0.03873   90.00000   0.00000   0.00010    59   60   61      7
    61   0.00000   2.09158   0.07747   0.03873   90.00000   0.00000   0.00010    60   61   62      7
    62   0.00000   2.09158   0.11620   0.03873   90.00000   0.00000   0.00010    61   62   63      7
    63   0.00000   2.09158   0.15493   0.03873   90.00000   0.00000   0.00010    62   63    0      7
    64   0.00000   2.44017  -0.15493   0.03873   90.00000   0.00000   0.00010     0   64   65      8
    65   0.00000   2.44017  -0.11620   0.03873   90.00000   0.00000   0.00010    64   65   66      8
    66   0.00000   2.44017  -0.07747   0.03873   90.00000   0.00000   0.00010    65   66   67      8
    67   0.00000   2.44017  -0.03873   0.03873   90.00000   0.00000   0.00010    66   67   68      8
    68   0.00000   2.44017   0.00000   0.03873   90.00000   0.00000   0.00010    67   68   69      8
    69   0.00000   2.44017   0.03873   0.03873   90.00000   0.00000   0.00010    68   69   70      8
    70   0.00000   2.44017   0.07747   0.03873   90.00000   0.00000   0.00010    69   70   71      8
    71   0.00000   2.44017   0.11620   0.03873   90.00000   0.00000   0.00010    70   71   72      8
    72   0.00000   2.44017   0.15493   0.03873   90.00000   0.00000   0.00010    71   72    0      8
    73   0.00000   2.78877  -0.15493   0.03873   90.00000   0.00000   0.00010     0   73   74      9
    74   0.00000   2.78877  -0.11620   0.03873   90.00000   0.00000   0.00010    73   74   75      9
    75   0.00000   2.78877  -0.07747   0.03873   90.00000   0.00000   0.00010    74   75   76      9
    76   0.00000   2.78877  -0.03873   0.03873   90.00000   0.00000   0.00010    75   76   77      9
    77   0.00000   2.78877   0.00000   0.03873   90.00000   0.00000   0.00010    76   77   78      9
    78   0.00000   2.78877   0.03873   0.03873   90.00000   0.00000   0.00010    77   78   79      9
    79   0.00000   2.78877   0.07747   0.03873   90.00000   0.00000   0.00010    78   79   80      9
    80   0.00000   2.78877   0.11620   0.03873   90.00000   0.00000   0.00010    79   80   81      9
    81   0.00000   2.78877   0.15493   0.03873   90.00000   0.00000   0.00010    80   81    0      9
    82   0.00000   3.13736  -0.15493   0.03873   90.00000   0.00000   0.00010     0   82   83     10
    83   0.00000   3.13736  -0.11620   0.03873   90.00000   0.00000   0.00010    82   83   84     10
    84   0.00000   3.13736  -0.07747   0.03873   90.00000   0.00000   0.00010    83   84   85     10
    85   0.00000   3.13736  -0.03873   0.03873   90.00000   0.00000   0.00010    84   85   86     10
    86   0.00000   3.13736   0.00000   0.03873   90.00000   0.00000   0.00010    85   86   87     10
    87   0.00000   3.13736   0.03873   0.03873   90.00000   0.00000   0.00010    86   87   88     10
    88   0.00000   3.13736   0.07747   0.03873   90.00000   0.00000   0.00010    87   88   89     10
    89   0.00000   3.13736   0.11620   0.03873   90.00000   0.00000   0.00010    88   89   90     10
    90   0.00000   3.13736   0.15493   0.03873   90.00000   0.00000   0.00010    89   90    0     10
    91   0.00000   3.48596  -0.15493   0.03873   90.00000   0.00000   0.00010     0   91   92     11
    92   0.00000   3.48596  -0.11620   0.03873   90.00000   0.00000   0.00010    91   92   93     11
    93   0.00000   3.48596  -0.07747   0.03873   90.00000   0.00000   0.00010    92   93   94     11
    94   0.00000   3.48596  -0.03873   0.03873   90.00000   0.00000   0.00010    93   94   95     11
    95   0.00000   3.48596   0.00000   0.03873   90.00000   0.00000   0.00010    94   95   96     11
    96   0.00000   3.48596   0.03873   0.03873   90.00000   0.00000   0.00010    95   96   97     11
    97   0.00000   3.48596   0.07747   0.03873   90.00000   0.00000   0.00010    96   97   98     11
    98   0.00000   3.48596   0.11620   0.03873   90.00000   0.00000   0.00010    97   98   99     11
    99   0.00000   3.48596   0.15493   0.03873   90.00000   0.00000   0.00010    98   99    0     11
   100   0.00000   3.83455  -0.15493   0.03873   90.00000   0.00000   0.00010     0  100  101     12
   101   0.00000   3.83455  -0.11620   0.03873   90.00000   0.00000   0.00010   100  101  102     12
   102   0.00000   3.83455  -0.07747   0.03873   90.00000   0.00000   0.00010   101  102  103     12
   103   0.00000   3.83455  -0.03873   0.03873   90.00000   0.00000   0.00010   102  103  104     12
   104   0.00000   3.83455   0.00000   0.03873   90.00000   0.00000   0.00010   103  104  105     12
   105   0.00000   3.83455   0.03873   0.03873   90.00000   0.00000   0.00010   104  105  106     12
   106   0.00000   3.83455   0.07747   0.03873   90.00000   0.00000   0.00010   105  106  107     12
   107   0.00000   3.83455   0.11620   0.03873   90.00000   0.00000   0.00010   106  107  108     12
   108   0.00000   3.83455   0.15493   0.03873   90.00000   0.00000   0.00010   107  108    0     12
   109   0.00000   4.18315  -0.15493   0.03873   90.00000   0.00000   0.00010     0  109  110     13
   110   0.00000   4.18315  -0.11620   0.03873   90.00000   0.00000   0.00010   109  110  111     13
   111   0.00000   4.18315  -0.07747   0.03873   90.00000   0.00000   0.00010   110  111  112     13
   112   0.00000   4.18315  -0.03873   0.03873   90.00000   0.00000   0.00010   111  112  113     13
   113   0.00000   4.18315   0.00000   0.03873   90.00000   0.00000   0.00010   112  113  114     13
   114   0.00000   4.18315   0.03873   0.03873   90.00000   0.00000   0.00010   113  114  115     13
   115   0.00000   4.18315   0.07747   0.03873   90.00000   0.00000   0.00010   114  115  116     13
   116   0.00000   4.18315   0.11620   0.03873   90.00000   0.00000   0.00010   115  116  117     13
   117   0.00000   4.18315   0.15493   0.03873   90.00000   0.00000   0.00010   116  117    0     13
   118   0.00000   4.53175  -0.15493   0.03873   90.00000   0.00000   0.00010     0  118  119     14
   119   0.00000   4.53175  -0.11620   0.03873   90.00000   0.00000   0.00010   118  119  120     14
   120   0.00000   4.53175  -0.07747   0.03873   90.00000   0.00000   0.00010   119  120  121     14
   121   0.00000   4.53175  -0.03873   0.03873   90.00000   0.00000   0.00010   120  121  122     14
   122   0.00000   4.53175   0.00000   0.03873   90.00000   0.00000   0.00010   121  122  123     14
   123   0.00000   4.53175   0.03873   0.03873   90.00000   0.00000   0.00010   122  123  124     14
   124   0.00000   4.53175   0.07747   0.03873   90.00000   0.00000   0.00010   123  124  125     14
   125   0.00000   4.53175   0.11620   0.03873   90.00000   0.00000   0.00010   124  125  126     14
   126   0.00000   4.53175   0.15493   0.03873   90.00000   0.00000   0.00010   125  126    0     14
   127   0.00000   4.88034  -0.15493   0.03873   90.00000   0.00000   0.00010     0  127  128     15
   128   0.00000   4.88034  -0.11620   0.03873   90.00000   0.00000   0.00010   127  128  129     15
   129   0.00000   4.88034  -0.07747   0.03873   90.00000   0.00000   0.00010   128  129  130     15
   130   0.00000   4.88034  -0.03873   0.03873   90.00000   0.00000   0.00010   129  130  131     15
   131   0.00000   4.88034   0.00000   0.03873   90.00000   0.00000   0.00010   130  131  132     15
   132   0.00000   4.88034   0.03873   0.03873   90.00000   0.00000   0.00010   131  132  133     15
   133   0.00000   4.88034   0.07747   0.03873   90.00000   0.00000   0.00010   132  133  134     15
   134   0.00000   4.88034   0.11620   0.03873   90.00000   0.00000   0.00010   133  134  135     15
   135   0.00000   4.88034   0.15493   0.03873   90.00000   0.00000   0.00010   134  135    0     15
   136   0.00000   5.22894  -0.15493   0.03873   90.00000   0.00000   0.00010     0  136  137     16
   137   0.00000   5.22894  -0.11620   0.03873   90.00000   0.00000   0.00010   136  137  138     16
   138   0.00000   5.22894  -0.07747   0.03873   90.00000   0.00000   0.00010   137  138  139     16
   139   0.00000   5.22894  -0.03873   0.03873   90.00000   0.00000   0.00010   138  139  140     16
   140   0.00000   5.22894   0.00000   0.03873   90.00000   0.00000   0.00010   139  140  141     16
   141   0.00000   5.22894   0.03873   0.03873   90.00000   0.00000   0.00010   140  141  142     16
   142   0.00000   5.22894   0.07747   0.03873   90.00000   0.00000   0.00010   141  142  143     16
   143   0.00000   5.22894   0.11620   0.03873   90.00000   0.00000   0.00010   142  143  144     16
   144   0.00000   5.22894   0.15493   0.03873   90.00000   0.00000   0.00010   143  144    0     16
   145   0.00000   5.57753  -0.15493   0.03873   90.00000   0.00000   0.00010     0  145  146     17
   146   0.00000   5.57753  -0.11620   0.03873   90.00000   0.00000   0.00010   145  146  147     17
   147   0.00000   5.57753  -0.07747   0.03873   90.00000   0.00000   0.00010   146  147  148     17
   148   0.00000   5.57753  -0.03873   0.03873   90.00000   0.00000   0.00010   147  148  149     17
   149   0.00000   5.57753   0.00000   0.03873   90.00000   0.00000   0.00010   148  149  150     17
   150   0.00000   5.57753   0.03873   0.03873   90.00000   0.00000   0.00010   149  150  151     17
   151   0.00000   5.57753   0.07747   0.03873   90.00000   0.00000   0.00010   150  151  152     17
   152   0.00000   5.57753   0.11620   0.03873   90.00000   0.00000   0.00010   151  152  153     17
   153   0.00000   5.57753   0.15493   0.03873   90.00000   0.00000   0.00010   152  153    0     17
   154   0.00000   5.92613  -0.15493   0.03873   90.00000   0.00000   0.00010     0  154  155     18
   155   0.00000   5.92613  -0.11620   0.03873   90.00000   0.00000   0.00010   154  155  156     18
   156   0.00000   5.92613  -0.07747   0.03873   90.00000   0.00000   0.00010   155  156  157     18
   157   0.00000   5.92613  -0.03873   0.03873   90.00000   0.00000   0.00010   156  157  158     18
   158   0.00000   5.92613   0.00000   0.03873   90.00000   0.00000   0.00010   157  158  159     18
   159   0.00000   5.92613   0.03873   0.03873   90.00000   0.00000   0.00010   158  159  160     18
   160   0.00000   5.92613   0.07747   0.03873   90.00000   0.00000   0.00010   159  160  161     18
   161   0.00000   5.92613   0.11620   0.03873   90.00000   0.00000   0.00010   160  161  162     18
   162   0.00000   5.92613   0.15493   0.03873   90.00000   0.00000   0.00010   161  162    0     18
   163   0.00000   6.27473  -0.15493   0.03873   90.00000   0.00000   0.00010     0  163  164     19
   164   0.00000   6.27473  -0.11620   0.03873   90.00000   0.00000   0.00010   163  164  165     19
   165   0.00000   6.27473  -0.07747   0.03873   90.00000   0.00000   0.00010   164  165  166     19
   166   0.00000   6.27473  -0.03873   0.03873   90.00000   0.00000   0.00010   165  166  167     19
   167   0.00000   6.27473   0.00000   0.03873   90.00000   0.00000   0.00010   166  167  168     19
   168   0.00000   6.27473   0.03873   0.03873   90.00000   0.00000   0.00010   167  168  169     19
   169   0.00000   6.27473   0.07747   0.03873   90.00000   0.00000   0.00010   168  169  170     19
   170   0.00000   6.27473   0.11620   0.03873   90.00000   0.00000   0.00010   169  170  171     19
   171   0.00000   6.27473   0.15493   0.03873   90.00000   0.00000   0.00010   170  171    0     19
   172   0.00000   6.62332  -0.15493   0.03873   90.00000   0.00000   0.00010     0  172  173     20
   173   0.00000   6.62332  -0.11620   0.03873   90.00000   0.00000   0.00010   172  173  174     20
   174   0.00000   6.62332  -0.07747   0.03873   90.00000   0.00000   0.00010   173  174  175     20
   175   0.00000   6.62332  -0.03873   0.03873   90.00000   0.00000   0.00010   174  175  176     20
   176   0.00000   6.62332   0.00000   0.03873   90.00000   0.00000   0.00010   175  176  177     20
   177   0.00000   6.62332   0.03873   0.03873   90.00000   0.00000   0.00010   176  177  178     20
   178   0.00000   6.62332   0.07747   0.03873   90.00000   0.00000   0.00010   177  178  179     20
   179   0.00000   6.62332   0.11620   0.03873   90.00000   0.00000   0.00010   178  179  180     20
   180   0.00000   6.62332   0.15493   0.03873   90.00000   0.00000   0.00010   179  180    0     20






 ***** DATA CARD NO.  1   LD   4     1     5     5  5.00000E+01  0.00000E+00  0.00000E+00  0.00000E+00  0.00000E+00  0.00000E+00
 ***** DATA CARD NO.  2   LD   4     2     5     5  5.00000E+01  0.00000E+00  0.00000E+00  0.00000E+00  0.00000E+00  0.00000E+00
 ***** DATA CARD NO.  3   LD   4     3     5     5  5.00000E+01  0.00000E+00  0.00000E+00  0.00000E+00  0.00000E+00  0.00000E+00
 ***** DATA CARD NO.  4   LD   4     4     5     5  5.00000E+01  0.00000E+00  0.00000E+00  0.00000E+00  0.00000E+00  0.00000E+00
 ***** DATA CARD NO.  5   LD   4     5     5     5  5.00000E+01  0.00000E+00  0.00000E+00  0.00000E+00  0.00000E+00  0.00000E+00
 ***** DATA CARD NO.  6   LD   4     6     5     5  5.00000E+01  0.00000E+00  0.00000E+00  0.00000E+00  0.00000E+00  0.00000E+00
 ***** DATA CARD NO.  7   LD   4     7     5     5  5.00000E+01  0.00000E+00  0.00000E+00  0.00000E+00  0.00000E+00  0.00000E+00
 ***** DATA CARD NO.  8   LD   4     8     5     5  5.00000E+01  0.00000E+00  0.00000E+00  0.00000E+00  0.00000E+00  0.00000E+00
 ***** DATA CARD NO.  9   LD   4     9     5     5  5.00000E+01  0.00000E+00  0.00000E+00  0.00000E+00  0.00000E+00  0.00000E+00
 ***** DATA CARD NO. 10   LD   4    10     5     5  5.00000E+01  0.00000E+00  0.00000E+00  0.00000E+00  0.00000E+00  0.00000E+00
 ***** DATA CARD NO. 11   LD   4    11     5     5  5.00000E+01  0.00000E+00  0.00000E+00  0.00000E+00  0.00000E+00  0.00000E+00
 ***** DATA CARD NO. 12   LD   4    12     5     5  5.00000E+01  0.00000E+00  0.00000E+00  0.00000E+00  0.00000E+00  0.00000E+00
 ***** DATA CARD NO. 13   LD   4    13     5     5  5.00000E+01  0.00000E+00  0.00000E+00  0.00000E+00  0.00000E+00  0.00000E+00
 ***** DATA CARD NO. 14   LD   4    14     5     5  5.00000E+01  0.00000E+00  0.00000E+00  0.00000E+00  0.00000E+00  0.00000E+00
 ***** DATA CARD NO. 15   LD   4    15     5     5  5.00000E+01  0.00000E+00  0.00000E+00  0.00000E+00  0.00000E+00  0.00000E+00
 ***** DATA CARD NO. 16   LD   4    16     5     5  5.00000E+01  0.00000E+00  0.00000E+00  0.00000E+00  0.00000E+00  0.00000E+00
 ***** DATA CARD NO. 17   LD   4    17     5     5  5.00000E+01  0.00000E+00  0.00000E+00  0.00000E+00  0.00000E+00  0.00000E+00
 ***** DATA CARD NO. 18   LD   4    18     5     5  5.00000E+01  0.00000E+00  0.00000E+00  0.00000E+00  0.00000E+00  0.00000E+00
 ***** DATA CARD NO. 19   LD   4    19     5     5  5.00000E+01  0.00000E+00  0.00000E+00  0.00000E+00  0.00000E+00  0.00000E+00
 ***** DATA CARD NO. 20   LD   4    20     5     5  5.00000E+01  0.00000E+00  0.00000E+00  0.00000E+00  0.00000E+00  0.00000E+00
 ***** DATA CARD NO. 21   GN  -1     0     0     0  0.00000E+00  0.00000E+00  0.00000E+00  0.00000E+00  0.00000E+00  0.00000E+00
 ***** DATA CARD NO. 22   EK   0     0     0     0  0.00000E+00  0.00000E+00  0.00000E+00  0.00000E+00  0.00000E+00  0.00000E+00
 ***** DATA CARD NO. 23   EX   0    17     5     0  1.00000E+00  0.00000E+00  0.00000E+00  0.00000E+00  0.00000E+00  0.00000E+00
 ***** DATA CARD NO. 24   FR   0     0     0     0  4.30000E+02  0.00000E+00  0.00000E+00  0.00000E+00  0.00000E+00  0.00000E+00
 ***** DATA CARD NO. 25   RP   0    37    73  1003 -1.80000E+02  0.00000E+00  5.00000E+00  5.00000E+00  0.00000E+00  0.00000E+00




                                 - - - - - - FREQUENCY - - - - - -

                                    FREQUENCY= 4.3000E+02 MHZ
                                    WAVELENGTH= 6.9721E-01 METERS




                    APPROXIMATE INTEGRATION EMPLOYED FOR SEGMENTS MORE THAN   1.000 WAVELENGTHS APART

                    THE EXTENDED THIN WIRE KERNEL WILL BE USED



                               - - - STRUCTURE IMPEDANCE LOADING - - -


       LOCATION          RESISTANCE   INDUCTANCE  CAPACITANCE       IMPEDANCE (OHMS)     CONDUCTIVITY    TYPE
    ITAG FROM THRU          OHMS        HENRYS       FARADS        REAL      IMAGINARY    MHOS/METER

       1    5    5                                             5.0000E+01                             FIXED IMPEDANCE 

       2    5    5                                             5.0000E+01                             FIXED IMPEDANCE 

       3    5    5                                             5.0000E+01                             FIXED IMPEDANCE 

       4    5    5                                             5.0000E+01                             FIXED IMPEDANCE 

       5    5    5                                             5.0000E+01                             FIXED IMPEDANCE 

       6    5    5                                             5.0000E+01                             FIXED IMPEDANCE 

       7    5    5                                             5.0000E+01                             FIXED IMPEDANCE 

       8    5    5                                             5.0000E+01                             FIXED IMPEDANCE 

       9    5    5                                             5.0000E+01                             FIXED IMPEDANCE 

      10    5    5                                             5.0000E+01                             FIXED IMPEDANCE 

      11    5    5                                             5.0000E+01                             FIXED IMPEDANCE 

      12    5    5                                             5.0000E+01                             FIXED IMPEDANCE 

      13    5    5                                             5.0000E+01                             FIXED IMPEDANCE 

      14    5    5                                             5.0000E+01                             FIXED IMPEDANCE 

      15    5    5                                             5.0000E+01                             FIXED IMPEDANCE 

      16    5    5                                             5.0000E+01                             FIXED IMPEDANCE 

      17    5    5                                             5.0000E+01                             FIXED IMPEDANCE 

      18    5    5                                             5.0000E+01                             FIXED IMPEDANCE 

      19    5    5                                             5.0000E+01                             FIXED IMPEDANCE 

      20    5    5                                             5.0000E+01                             FIXED IMPEDANCE 



                                  - - - ANTENNA ENVIRONMENT - - -

                                            FREE SPACE



                                - - - MATRIX TIMING - - -

                        FILL=    0.031 SEC.,  FACTOR=    0.000 SEC.



                                          - - - ANTENNA INPUT PARAMETERS - - -

   TAG   SEG.    VOLTAGE (VOLTS)         CURRENT (AMPS)         IMPEDANCE (OHMS)        ADMITTANCE (MHOS)      POWER
   NO.   NO.    REAL        IMAG.       REAL        IMAG.       REAL        IMAG.       REAL        IMAG.     (WATTS)
    17   149 1.00000E+00 0.00000E+00 7.29096E-03-1.44262E-03 1.31989E+02 2.61158E+01 7.29096E-03-1.44262E-03 3.64548E-03



                             - - - CURRENTS AND LOCATION - - -

                                 DISTANCES IN WAVELENGTHS


  SEG.  TAG    COORD. OF SEG. CENTER     SEG.            - - - CURRENT (AMPS) - - -
  NO.   NO.     X        Y        Z      LENGTH     REAL        IMAG.       MAG.        PHASE
     1    1   0.0000   0.0000  -0.2222  0.05555  -7.8356E-06  7.7166E-07  7.8735E-06  174.376
     2    1   0.0000   0.0000  -0.1667  0.05555  -2.1110E-05  2.3663E-06  2.1242E-05  173.604
     3    1   0.0000   0.0000  -0.1111  0.05555  -3.1417E-05  3.9721E-06  3.1667E-05  172.794
     4    1   0.0000   0.0000  -0.0556  0.05555  -3.7992E-05  5.4422E-06  3.8380E-05  171.848
     5    1   0.0000   0.0000   0.0000  0.05555  -4.0192E-05  6.4111E-06  4.0700E-05  170.937
     6    1   0.0000   0.0000   0.0556  0.05555  -3.7992E-05  5.4422E-06  3.8380E-05  171.848
     7    1   0.0000   0.0000   0.1111  0.05555  -3.1417E-05  3.9721E-06  3.1667E-05  172.794
     8    1   0.0000   0.0000   0.1667  0.05555  -2.1110E-05  2.3663E-06  2.1242E-05  173.604
     9    1   0.0000   0.0000   0.2222  0.05555  -7.8356E-06  7.7166E-07  7.8735E-06  174.376
    10    2   0.0000   0.5000  -0.2222  0.05555   7.0747E-06 -1.8399E-06  7.3100E-06  -14.578
    11    2   0.0000   0.5000  -0.1667  0.05555   1.9047E-05 -5.2201E-06  1.9749E-05  -15.327
    12    2   0.0000   0.5000  -0.1111  0.05555   2.8310E-05 -8.1819E-06  2.9469E-05  -16.120
    13    2   0.0000   0.5000  -0.0556  0.05555   3.4163E-05 -1.0481E-05  3.5735E-05  -17.055
    14    2   0.0000   0.5000   0.0000  0.05555   3.6054E-05 -1.1689E-05  3.7901E-05  -17.963
    15    2   0.0000   0.5000   0.0556  0.05555   3.4163E-05 -1.0481E-05  3.5735E-05  -17.055
    16    2   0.0000   0.5000   0.1111  0.05555   2.8310E-05 -8.1819E-06  2.9469E-05  -16.120
    17    2   0.0000   0.5000   0.1667  0.05555   1.9047E-05 -5.2201E-06  1.9749E-05  -15.327
    18    2   0.0000   0.5000   0.2222  0.05555   7.0747E-06 -1.8399E-06  7.3100E-06  -14.578
    19    3   0.0000   1.0000  -0.2222  0.05555  -7.1465E-06  2.2165E-06  7.4824E-06  162.769
    20    3   0.0000   1.0000  -0.1667  0.05555  -1.9232E-05  6.2363E-06  2.0218E-05  162.034
    21    3   0.0000   1.0000  -0.1111  0.05555  -2.8570E-05  9.6983E-06  3.0171E-05  161.250
    22    3   0.0000   1.0000  -0.0556  0.05555  -3.4451E-05  1.2322E-05  3.6588E-05  160.319
    23    3   0.0000   1.0000   0.0000  0.05555  -3.6329E-05  1.3645E-05  3.8807E-05  159.413
    24    3   0.0000   1.0000   0.0556  0.05555  -3.4451E-05  1.2322E-05  3.6588E-05  160.319
    25    3   0.0000   1.0000   0.1111  0.05555  -2.8570E-05  9.6983E-06  3.0171E-05  161.250
    26    3   0.0000   1.0000   0.1667  0.05555  -1.9232E-05  6.2363E-06  2.0218E-05  162.034
    27    3   0.0000   1.0000   0.2222  0.05555  -7.1465E-06  2.2165E-06  7.4824E-06  162.769
    28    4   0.0000   1.5000  -0.2222  0.05555   7.5293E-06 -2.4703E-06  7.9242E-06  -18.164
    29    4   0.0000   1.5000  -0.1667  0.05555   2.0258E-05 -6.9343E-06  2.1412E-05  -18.896
    30    4   0.0000   1.5000  -0.1111  0.05555   3.0087E-05 -1.0760E-05  3.1953E-05  -19.678
    31    4   0.0000   1.5000  -0.0556  0.05555   3.6270E-05 -1.3638E-05  3.8749E-05  -20.607
    32    4   0.0000   1.5000   0.0000  0.05555   3.8236E-05 -1.5071E-05  4.1099E-05  -21.512
    33    4   0.0000   1.5000   0.0556  0.05555   3.6270E-05 -1.3638E-05  3.8749E-05  -20.607
    34    4   0.0000   1.5000   0.1111  0.05555   3.0087E-05 -1.0760E-05  3.1953E-05  -19.678
    35    4   0.0000   1.5000   0.1667  0.05555   2.0258E-05 -6.9343E-06  2.1412E-05  -18.896
    36    4   0.0000   1.5000   0.2222  0.05555   7.5293E-06 -2.4703E-06  7.9242E-06  -18.164
    37    5   0.0000   2.0000  -0.2222  0.05555  -8.1396E-06  2.6968E-06  8.5747E-06  161.669
    38    5   0.0000   2.0000  -0.1667  0.05555  -2.1898E-05  7.5671E-06  2.3169E-05  160.937
    39    5   0.0000   2.0000  -0.1111  0.05555  -3.2521E-05  1.1737E-05  3.4574E-05  160.155
    40    5   0.0000   2.0000  -0.0556  0.05555  -3.9201E-05  1.4871E-05  4.1927E-05  159.226
    41    5   0.0000   2.0000   0.0000  0.05555  -4.1324E-05  1.6428E-05  4.4470E-05  158.320
    42    5   0.0000   2.0000   0.0556  0.05555  -3.9201E-05  1.4871E-05  4.1927E-05  159.226
    43    5   0.0000   2.0000   0.1111  0.05555  -3.2521E-05  1.1737E-05  3.4574E-05  160.155
    44    5   0.0000   2.0000   0.1667  0.05555  -2.1898E-05  7.5671E-06  2.3169E-05  160.937
    45    5   0.0000   2.0000   0.2222  0.05555  -8.1396E-06  2.6968E-06  8.5747E-06  161.669
    46    6   0.0000   2.4999  -0.2222  0.05555   8.9797E-06 -2.9240E-06  9.4437E-06  -18.037
    47    6   0.0000   2.4999  -0.1667  0.05555   2.4159E-05 -8.2105E-06  2.5516E-05  -18.771
    48    6   0.0000   2.4999  -0.1111  0.05555   3.5879E-05 -1.2744E-05  3.8075E-05  -19.554
    49    6   0.0000   2.4999  -0.0556  0.05555   4.3252E-05 -1.6158E-05  4.6171E-05  -20.485
    50    6   0.0000   2.4999   0.0000  0.05555   4.5597E-05 -1.7861E-05  4.8971E-05  -21.390
    51    6   0.0000   2.4999   0.0556  0.05555   4.3252E-05 -1.6158E-05  4.6171E-05  -20.485
    52    6   0.0000   2.4999   0.1111  0.05555   3.5879E-05 -1.2744E-05  3.8075E-05  -19.554
    53    6   0.0000   2.4999   0.1667  0.05555   2.4159E-05 -8.2105E-06  2.5516E-05  -18.771
    54    6   0.0000   2.4999   0.2222  0.05555   8.9797E-06 -2.9240E-06  9.4437E-06  -18.037
    55    7   0.0000   2.9999  -0.2222  0.05555  -1.0095E-05  3.1623E-06  1.0579E-05  162.607
    56    7   0.0000   2.9999  -0.1667  0.05555  -2.7161E-05  8.8939E-06  2.8580E-05  161.869
    57    7   0.0000   2.9999  -0.1111  0.05555  -4.0342E-05  1.3826E-05  4.2645E-05  161.083
    58    7   0.0000   2.9999  -0.0556  0.05555  -4.8640E-05  1.7558E-05  5.1712E-05  160.151
    59    7   0.0000   2.9999   0.0000  0.05555  -5.1288E-05  1.9436E-05  5.4847E-05  159.245
    60    7   0.0000   2.9999   0.0556  0.05555  -4.8640E-05  1.7558E-05  5.1712E-05  160.151
    61    7   0.0000   2.9999   0.1111  0.05555  -4.0342E-05  1.3826E-05  4.2645E-05  161.083
    62    7   0.0000   2.9999   0.1667  0.05555  -2.7161E-05  8.8939E-06  2.8580E-05  161.869
    63    7   0.0000   2.9999   0.2222  0.05555  -1.0095E-05  3.1623E-06  1.0579E-05  162.607
    64    8   0.0000   3.4999  -0.2222  0.05555   1.1574E-05 -3.4142E-06  1.2067E-05  -16.435
    65    8   0.0000   3.4999  -0.1667  0.05555   3.1144E-05 -9.6274E-06  3.2598E-05  -17.178
    66    8   0.0000   3.4999  -0.1111  0.05555   4.6265E-05 -1.5003E-05  4.8637E-05  -17.967
    67    8   0.0000   3.4999  -0.0556  0.05555   5.5796E-05 -1.9104E-05  5.8976E-05  -18.900
    68    8   0.0000   3.4999   0.0000  0.05555   5.8850E-05 -2.1195E-05  6.2550E-05  -19.807
    69    8   0.0000   3.4999   0.0556  0.05555   5.5796E-05 -1.9104E-05  5.8976E-05  -18.900
    70    8   0.0000   3.4999   0.1111  0.05555   4.6265E-05 -1.5003E-05  4.8637E-05  -17.967
    71    8   0.0000   3.4999   0.1667  0.05555   3.1144E-05 -9.6274E-06  3.2598E-05  -17.178
    72    8   0.0000   3.4999   0.2222  0.05555   1.1574E-05 -3.4142E-06  1.2067E-05  -16.435
    73    9   0.0000   3.9999  -0.2222  0.05555  -1.3567E-05  3.6728E-06  1.4056E-05  164.853
    74    9   0.0000   3.9999  -0.1667  0.05555  -3.6512E-05  1.0398E-05  3.7964E-05  164.104
    75    9   0.0000   3.9999  -0.1111  0.05555  -5.4252E-05  1.6265E-05  5.6638E-05  163.311
    76    9   0.0000   3.9999  -0.0556  0.05555  -6.5451E-05  2.0793E-05  6.8674E-05  162.376
    77    9   0.0000   3.9999   0.0000  0.05555  -6.9058E-05  2.3150E-05  7.2835E-05  161.468
    78    9   0.0000   3.9999   0.0556  0.05555  -6.5451E-05  2.0793E-05  6.8674E-05  162.376
    79    9   0.0000   3.9999   0.1111  0.05555  -5.4252E-05  1.6265E-05  5.6638E-05  163.311
    80    9   0.0000   3.9999   0.1667  0.05555  -3.6512E-05  1.0398E-05  3.7964E-05  164.104
    81    9   0.0000   3.9999   0.2222  0.05555  -1.3567E-05  3.6728E-06  1.4056E-05  164.853
    82   10   0.0000   4.4999  -0.2222  0.05555   1.6330E-05 -3.9125E-06  1.6792E-05  -13.473
    83   10   0.0000   4.4999  -0.1667  0.05555   4.3956E-05 -1.1146E-05  4.5347E-05  -14.229
    84   10   0.0000   4.4999  -0.1111  0.05555   6.5332E-05 -1.7538E-05  6.7645E-05  -15.027
    85   10   0.0000   4.4999  -0.0556  0.05555   7.8852E-05 -2.2559E-05  8.2015E-05  -15.965
    86   10   0.0000   4.4999   0.0000  0.05555   8.3238E-05 -2.5248E-05  8.6983E-05  -16.874
    87   10   0.0000   4.4999   0.0556  0.05555   7.8852E-05 -2.2559E-05  8.2015E-05  -15.965
    88   10   0.0000   4.4999   0.1111  0.05555   6.5332E-05 -1.7538E-05  6.7645E-05  -15.027
    89   10   0.0000   4.4999   0.1667  0.05555   4.3956E-05 -1.1146E-05  4.5347E-05  -14.229
    90   10   0.0000   4.4999   0.2222  0.05555   1.6330E-05 -3.9125E-06  1.6792E-05  -13.473
    91   11   0.0000   4.9999  -0.2222  0.05555  -2.0322E-05  4.0621E-06  2.0724E-05  168.696
    92   11   0.0000   4.9999  -0.1667  0.05555  -5.4714E-05  1.1698E-05  5.5951E-05  167.932
    93   11   0.0000   4.9999  -0.1111  0.05555  -8.1353E-05  1.8590E-05  8.3450E-05  167.128
    94   11   0.0000   4.9999  -0.0556  0.05555  -9.8243E-05  2.4155E-05  1.0117E-04  166.186
    95   11   0.0000   4.9999   0.0000  0.05555  -1.0377E-04  2.7269E-05  1.0729E-04  165.277
    96   11   0.0000   4.9999   0.0556  0.05555  -9.8243E-05  2.4155E-05  1.0117E-04  166.186
    97   11   0.0000   4.9999   0.1111  0.05555  -8.1353E-05  1.8590E-05  8.3450E-05  167.128
    98   11   0.0000   4.9999   0.1667  0.05555  -5.4714E-05  1.1698E-05  5.5951E-05  167.932
    99   11   0.0000   4.9999   0.2222  0.05555  -2.0322E-05  4.0621E-06  2.0724E-05  168.696
   100   12   0.0000   5.4999  -0.2222  0.05555   2.6432E-05 -3.9240E-06  2.6722E-05   -8.444
   101   12   0.0000   5.4999  -0.1667  0.05555   7.1189E-05 -1.1554E-05  7.2121E-05   -9.219
   102   12   0.0000   5.4999  -0.1111  0.05555   1.0590E-04 -1.8730E-05  1.0754E-04  -10.030
   103   12   0.0000   5.4999  -0.0556  0.05555   1.2798E-04 -2.4821E-05  1.3036E-04  -10.976
   104   12   0.0000   5.4999   0.0000  0.05555   1.3529E-04 -2.8478E-05  1.3825E-04  -11.887
   105   12   0.0000   5.4999   0.0556  0.05555   1.2798E-04 -2.4821E-05  1.3036E-04  -10.976
   106   12   0.0000   5.4999   0.1111  0.05555   1.0590E-04 -1.8730E-05  1.0754E-04  -10.030
   107   12   0.0000   5.4999   0.1667  0.05555   7.1189E-05 -1.1554E-05  7.2121E-05   -9.219
   108   12   0.0000   5.4999   0.2222  0.05555   2.6432E-05 -3.9240E-06  2.6722E-05   -8.444
   109   13   0.0000   5.9998  -0.2222  0.05555  -3.6587E-05  2.9046E-06  3.6703E-05  175.461
   110   13   0.0000   5.9998  -0.1667  0.05555  -9.8581E-05  9.1906E-06  9.9009E-05  174.674
   111   13   0.0000   5.9998  -0.1111  0.05555  -1.4674E-04  1.5802E-05  1.4759E-04  173.854
   112   13   0.0000   5.9998  -0.0556  0.05555  -1.7751E-04  2.2102E-05  1.7888E-04  172.902
   113   13   0.0000   5.9998   0.0000  0.05555  -1.8784E-04  2.6434E-05  1.8969E-04  171.989
   114   13   0.0000   5.9998   0.0556  0.05555  -1.7751E-04  2.2102E-05  1.7888E-04  172.902
   115   13   0.0000   5.9998   0.1111  0.05555  -1.4674E-04  1.5802E-05  1.4759E-04  173.854
   116   13   0.0000   5.9998   0.1667  0.05555  -9.8581E-05  9.1906E-06  9.9009E-05  174.674
   117   13   0.0000   5.9998   0.2222  0.05555  -3.6587E-05  2.9046E-06  3.6703E-05  175.461
   118   14   0.0000   6.4998  -0.2222  0.05555   5.5671E-05  1.0899E-06  5.5681E-05    1.122
   119   14   0.0000   6.4998  -0.1667  0.05555   1.5008E-04  8.4033E-07  1.5008E-04    0.321
   120   14   0.0000   6.4998  -0.1111  0.05555   2.2360E-04 -1.9877E-06  2.2361E-04   -0.509
   121   14   0.0000   6.4998  -0.0556  0.05555   2.7084E-04 -6.9367E-06  2.7093E-04   -1.467
   122   14   0.0000   6.4998   0.0000  0.05555   2.8703E-04 -1.1941E-05  2.8727E-04   -2.382
   123   14   0.0000   6.4998   0.0556  0.05555   2.7084E-04 -6.9367E-06  2.7093E-04   -1.467
   124   14   0.0000   6.4998   0.1111  0.05555   2.2360E-04 -1.9877E-06  2.2361E-04   -0.509
   125   14   0.0000   6.4998   0.1667  0.05555   1.5008E-04  8.4033E-07  1.5008E-04    0.321
   126   14   0.0000   6.4998   0.2222  0.05555   5.5671E-05  1.0899E-06  5.5681E-05    1.122
   127   15   0.0000   6.9998  -0.2222  0.05555  -9.9796E-05 -1.7882E-05  1.0139E-04 -169.841
   128   15   0.0000   6.9998  -0.1667  0.05555  -2.6919E-04 -4.4361E-05  2.7282E-04 -170.642
   129   15   0.0000   6.9998  -0.1111  0.05555  -4.0154E-04 -6.0185E-05  4.0603E-04 -171.476
   130   15   0.0000   6.9998  -0.0556  0.05555  -4.8737E-04 -6.4709E-05  4.9165E-04 -172.437
   131   15   0.0000   6.9998   0.0000  0.05555  -5.1771E-04 -6.0326E-05  5.2121E-04 -173.354
   132   15   0.0000   6.9998   0.0556  0.05555  -4.8737E-04 -6.4709E-05  4.9165E-04 -172.437
   133   15   0.0000   6.9998   0.1111  0.05555  -4.0154E-04 -6.0185E-05  4.0603E-04 -171.476
   134   15   0.0000   6.9998   0.1667  0.05555  -2.6919E-04 -4.4361E-05  2.7282E-04 -170.642
   135   15   0.0000   6.9998   0.2222  0.05555  -9.9796E-05 -1.7882E-05  1.0139E-04 -169.841
   136   16   0.0000   7.4998  -0.2222  0.05555   2.6659E-04  1.2374E-04  2.9391E-04   24.899
   137   16   0.0000   7.4998  -0.1667  0.05555   7.1853E-04  3.2497E-04  7.8860E-04   24.336
   138   16   0.0000   7.4998  -0.1111  0.05555   1.0726E-03  4.7006E-04  1.1711E-03   23.664
   139   16   0.0000   7.4998  -0.0556  0.05555   1.3056E-03  5.4869E-04  1.4162E-03   22.795
   140   16   0.0000   7.4998   0.0000  0.05555   1.3923E-03  5.5994E-04  1.5007E-03   21.908
   141   16   0.0000   7.4998   0.0556  0.05555   1.3056E-03  5.4869E-04  1.4162E-03   22.795
   142   16   0.0000   7.4998   0.1111  0.05555   1.0726E-03  4.7006E-04  1.1711E-03   23.664
   143   16   0.0000   7.4998   0.1667  0.05555   7.1853E-04  3.2497E-04  7.8860E-04   24.336
   144   16   0.0000   7.4998   0.2222  0.05555   2.6659E-04  1.2374E-04  2.9391E-04   24.899
   145   17   0.0000   7.9998  -0.2222  0.05555   1.4310E-03 -4.0887E-04  1.4883E-03  -15.946
   146   17   0.0000   7.9998  -0.1667  0.05555   3.8456E-03 -1.0358E-03  3.9826E-03  -15.075
   147   17   0.0000   7.9998  -0.1111  0.05555   5.7122E-03 -1.4263E-03  5.8876E-03  -14.020
   148   17   0.0000   7.9998  -0.0556  0.05555   6.8979E-03 -1.5461E-03  7.0691E-03  -12.633
   149   17   0.0000   7.9998   0.0000  0.05555   7.2910E-03 -1.4426E-03  7.4323E-03  -11.192
   150   17   0.0000   7.9998   0.0556  0.05555   6.8979E-03 -1.5461E-03  7.0691E-03  -12.633
   151   17   0.0000   7.9998   0.1111  0.05555   5.7122E-03 -1.4263E-03  5.8876E-03  -14.020
   152   17   0.0000   7.9998   0.1667  0.05555   3.8456E-03 -1.0358E-03  3.9826E-03  -15.075
   153   17   0.0000   7.9998   0.2222  0.05555   1.4310E-03 -4.0887E-04  1.4883E-03  -15.946
   154   18   0.0000   8.4998  -0.2222  0.05555   2.6836E-04  1.2470E-04  2.9592E-04   24.923
   155   18   0.0000   8.4998  -0.1667  0.05555   7.2333E-04  3.2749E-04  7.9401E-04   24.359
   156   18   0.0000   8.4998  -0.1111  0.05555   1.0798E-03  4.7371E-04  1.1792E-03   23.686
   157   18   0.0000   8.4998  -0.0556  0.05555   1.3144E-03  5.5296E-04  1.4260E-03   22.817
   158   18   0.0000   8.4998   0.0000  0.05555   1.4017E-03  5.6432E-04  1.5110E-03   21.930
   159   18   0.0000   8.4998   0.0556  0.05555   1.3144E-03  5.5296E-04  1.4260E-03   22.817
   160   18   0.0000   8.4998   0.1111  0.05555   1.0798E-03  4.7371E-04  1.1792E-03   23.686
   161   18   0.0000   8.4998   0.1667  0.05555   7.2333E-04  3.2749E-04  7.9401E-04   24.359
   162   18   0.0000   8.4998   0.2222  0.05555   2.6836E-04  1.2470E-04  2.9592E-04   24.923
   163   19   0.0000   8.9998  -0.2222  0.05555  -1.0405E-04 -2.0599E-05  1.0607E-04 -168.802
   164   19   0.0000   8.9998  -0.1667  0.05555  -2.8074E-04 -5.1516E-05  2.8543E-04 -169.602
   165   19   0.0000   8.9998  -0.1111  0.05555  -4.1889E-04 -7.0587E-05  4.2479E-04 -170.435
   166   19   0.0000   8.9998  -0.0556  0.05555  -5.0858E-04 -7.6953E-05  5.1437E-04 -171.396
   167   19   0.0000   8.9998   0.0000  0.05555  -5.4040E-04 -7.2946E-05  5.4530E-04 -172.312
   168   19   0.0000   8.9998   0.0556  0.05555  -5.0858E-04 -7.6953E-05  5.1437E-04 -171.396
   169   19   0.0000   8.9998   0.1111  0.05555  -4.1889E-04 -7.0587E-05  4.2479E-04 -170.435
   170   19   0.0000   8.9998   0.1667  0.05555  -2.8074E-04 -5.1516E-05  2.8543E-04 -169.602
   171   19   0.0000   8.9998   0.2222  0.05555  -1.0405E-04 -2.0599E-05  1.0607E-04 -168.802
   172   20   0.0000   9.4998  -0.2222  0.05555   6.5720E-05  1.0233E-05  6.6512E-05    8.850
   173   20   0.0000   9.4998  -0.1667  0.05555   1.7734E-04  2.5094E-05  1.7911E-04    8.054
   174   20   0.0000   9.4998  -0.1111  0.05555   2.6457E-04  3.3541E-05  2.6668E-04    7.225
   175   20   0.0000   9.4998  -0.0556  0.05555   3.2107E-04  3.5263E-05  3.2300E-04    6.268
   176   20   0.0000   9.4998   0.0000  0.05555   3.4096E-04  3.1944E-05  3.4245E-04    5.352
   177   20   0.0000   9.4998   0.0556  0.05555   3.2107E-04  3.5263E-05  3.2300E-04    6.268
   178   20   0.0000   9.4998   0.1111  0.05555   2.6457E-04  3.3541E-05  2.6668E-04    7.225
   179   20   0.0000   9.4998   0.1667  0.05555   1.7734E-04  2.5094E-05  1.7911E-04    8.054
   180   20   0.0000   9.4998   0.2222  0.05555   6.5720E-05  1.0233E-05  6.6512E-05    8.850



                                        - - - POWER BUDGET - - -

                                           INPUT POWER   = 3.6455E-03 WATTS
                                           RADIATED POWER= 2.1295E-03 WATTS
                                           STRUCTURE LOSS= 1.5160E-03 WATTS
                                           NETWORK LOSS  = 0.0000E+00 WATTS
                                           EFFICIENCY    =  58.41 PERCENT



                                                - - - RADIATION PATTERNS - - -

  - - ANGLES - -           - POWER GAINS -       - - - POLARIZATION - - -    - - - E(THETA) - - -    - - - E(PHI) - - -
  THETA     PHI        VERT.   HOR.    TOTAL      AXIAL     TILT   SENSE     MAGNITUDE    PHASE      MAGNITUDE    PHASE 
 DEGREES  DEGREES       DB      DB      DB        RATIO     DEG.              VOLTS/M    DEGREES      VOLTS/M    DEGREES
 -180.00     0.00    -999.99 -999.99 -999.99    0.00000     0.00            4.64954E-12    86.26    0.00000E+00     0.00
 -175.00     0.00     -21.40 -999.99  -21.40    0.00000     0.00  LINEAR    3.97805E-02   -93.75    0.00000E+00     0.00
 -170.00     0.00     -15.36 -999.99  -15.36    0.00000     0.00  LINEAR    7.97218E-02   -93.75    0.00000E+00     0.00
 -165.00     0.00     -11.82 -999.99  -11.82    0.00000     0.00  LINEAR    1.19958E-01   -93.76    0.00000E+00     0.00
 -160.00     0.00      -9.28 -999.99   -9.28    0.00000     0.00  LINEAR    1.60572E-01   -93.78    0.00000E+00     0.00
 -155.00     0.00      -7.31 -999.99   -7.31    0.00000     0.00  LINEAR    2.01567E-01   -93.80    0.00000E+00     0.00
 -150.00     0.00      -5.69 -999.99   -5.69    0.00000     0.00  LINEAR    2.42851E-01   -93.81    0.00000E+00     0.00
 -145.00     0.00      -4.32 -999.99   -4.32    0.00000     0.00  LINEAR    2.84219E-01   -93.84    0.00000E+00     0.00
 -140.00     0.00      -3.15 -999.99   -3.15    0.00000     0.00  LINEAR    3.25340E-01   -93.86    0.00000E+00     0.00
 -135.00     0.00      -2.13 -999.99   -2.13    0.00000     0.00  LINEAR    3.65757E-01   -93.88    0.00000E+00     0.00
 -130.00     0.00      -1.25 -999.99   -1.25    0.00000     0.00  LINEAR    4.04894E-01   -93.90    0.00000E+00     0.00
 -125.00     0.00      -0.49 -999.99   -0.49    0.00000     0.00  LINEAR    4.42071E-01   -93.93    0.00000E+00     0.00
 -120.00     0.00       0.17 -999.99    0.17    0.00000     0.00  LINEAR    4.76531E-01   -93.94    0.00000E+00     0.00
 -115.00     0.00       0.71 -999.99    0.71    0.00000     0.00  LINEAR    5.07481E-01   -93.96    0.00000E+00     0.00
 -110.00     0.00       1.16 -999.99    1.16    0.00000     0.00  LINEAR    5.34129E-01   -93.98    0.00000E+00     0.00
 -105.00     0.00       1.50 -999.99    1.50    0.00000     0.00  LINEAR    5.55737E-01   -93.99    0.00000E+00     0.00
 -100.00     0.00       1.75 -999.99    1.75    0.00000     0.00  LINEAR    5.71670E-01   -94.00    0.00000E+00     0.00
  -95.00     0.00       1.89 -999.99    1.89    0.00000     0.00  LINEAR    5.81437E-01   -94.00    0.00000E+00     0.00
  -90.00     0.00       1.94 -999.99    1.94    0.00000     0.00  LINEAR    5.84728E-01   -94.00    0.00000E+00     0.00
  -85.00     0.00       1.89 -999.99    1.89    0.00000     0.00  LINEAR    5.81437E-01   -94.00    0.00000E+00     0.00
  -80.00     0.00       1.75 -999.99    1.75    0.00000     0.00  LINEAR    5.71670E-01   -94.00    0.00000E+00     0.00
  -75.00     0.00       1.50 -999.99    1.50    0.00000     0.00  LINEAR    5.55737E-01   -93.99    0.00000E+00     0.00
  -70.00     0.00       1.16 -999.99    1.16    0.00000     0.00  LINEAR    5.34129E-01   -93.98    0.00000E+00     0.00
  -65.00     0.00       0.71 -999.99    0.71    0.00000     0.00  LINEAR    5.07481E-01   -93.96    0.00000E+00     0.00
  -60.00     0.00       0.17 -999.99    0.17    0.00000     0.00  LINEAR    4.76531E-01   -93.94    0.00000E+00     0.00
  -55.00     0.00      -0.49 -999.99   -0.49    0.00000     0.00  LINEAR    4.42071E-01   -93.93    0.00000E+00     0.00
  -50.00     0.00      -1.25 -999.99   -1.25    0.00000     0.00  LINEAR    4.04894E-01   -93.90    0.00000E+00     0.00
  -45.00     0.00      -2.13 -999.99   -2.13    0.00000     0.00  LINEAR    3.65757E-01   -93.88    0.00000E+00     0.00
  -40.00     0.00      -3.15 -999.99   -3.15    0.00000     0.00  LINEAR    3.25340E-01   -93.86    0.00000E+00     0.00
  -35.00     0.00      -4.32 -999.99   -4.32    0.00000     0.00  LINEAR    2.84219E-01   -93.84    0.00000E+00     0.00
  -30.00     0.00      -5.69 -999.99   -5.69    0.00000     0.00  LINEAR    2.42851E-01   -93.81    0.00000E+00     0.00
  -25.00     0.00      -7.31 -999.99   -7.31    0.00000     0.00  LINEAR    2.01567E-01   -93.80    0.00000E+00     0.00
  -20.00     0.00      -9.28 -999.99   -9.28    0.00000     0.00  LINEAR    1.60572E-01   -93.78    0.00000E+00     0.00
  -15.00     0.00     -11.82 -999.99  -11.82    0.00000     0.00  LINEAR    1.19958E-01   -93.76    0.00000E+00     0.00
  -10.00     0.00     -15.36 -999.99  -15.36    0.00000     0.00  LINEAR    7.97218E-02   -93.75    0.00000E+00     0.00
   -5.00     0.00     -21.40 -999.99  -21.40    0.00000     0.00  LINEAR    3.97805E-02   -93.75    0.00000E+00     0.00
    0.00     0.00    -999.99 -999.99 -999.99    0.00000     0.00            0.00000E+00     0.00    0.00000E+00     0.00
 -180.00     5.00    -999.99 -999.99 -999.99    0.00000     0.00            4.64954E-12    86.26    0.00000E+00     0.00
 -175.00     5.00     -21.40 -999.99  -21.40    0.00000     0.00  LINEAR    3.97966E-02  -115.75    0.00000E+00     0.00
 -170.00     5.00     -15.36 -999.99  -15.36    0.00000     0.00  LINEAR    7.97993E-02  -137.58    0.00000E+00     0.00
 -165.00     5.00     -11.80 -999.99  -11.80    0.00000     0.00  LINEAR    1.20151E-01  -159.08    0.00000E+00     0.00
 -160.00     5.00      -9.26 -999.99   -9.26    0.00000     0.00  LINEAR    1.60926E-01   179.93    0.00000E+00     0.00
 -155.00     5.00      -7.28 -999.99   -7.28    0.00000     0.00  LINEAR    2.02100E-01   159.61    0.00000E+00     0.00
 -150.00     5.00      -5.66 -999.99   -5.66    0.00000     0.00  LINEAR    2.43542E-01   140.12    0.00000E+00     0.00
 -145.00     5.00      -4.30 -999.99   -4.30    0.00000     0.00  LINEAR    2.85001E-01   121.59    0.00000E+00     0.00
 -140.00     5.00      -3.13 -999.99   -3.13    0.00000     0.00  LINEAR    3.26109E-01   104.16    0.00000E+00     0.00
 -135.00     5.00      -2.12 -999.99   -2.12    0.00000     0.00  LINEAR    3.66386E-01    87.97    0.00000E+00     0.00
 -130.00     5.00      -1.24 -999.99   -1.24    0.00000     0.00  LINEAR    4.05252E-01    73.12    0.00000E+00     0.00
 -125.00     5.00      -0.49 -999.99   -0.49    0.00000     0.00  LINEAR    4.42046E-01    59.75    0.00000E+00     0.00
 -120.00     5.00       0.16 -999.99    0.16    0.00000     0.00  LINEAR    4.76042E-01    47.94    0.00000E+00     0.00
 -115.00     5.00       0.70 -999.99    0.70    0.00000     0.00  LINEAR    5.06491E-01    37.78    0.00000E+00     0.00
 -110.00     5.00       1.13 -999.99    1.13    0.00000     0.00  LINEAR    5.32648E-01    29.36    0.00000E+00     0.00
 -105.00     5.00       1.47 -999.99    1.47    0.00000     0.00  LINEAR    5.53820E-01    22.75    0.00000E+00     0.00
 -100.00     5.00       1.71 -999.99    1.71    0.00000     0.00  LINEAR    5.69412E-01    17.98    0.00000E+00     0.00
  -95.00     5.00       1.86 -999.99    1.86    0.00000     0.00  LINEAR    5.78962E-01    15.11    0.00000E+00     0.00
  -90.00     5.00       1.91 -999.99    1.91    0.00000     0.00  LINEAR    5.82178E-01    14.15    0.00000E+00     0.00
  -85.00     5.00       1.86 -999.99    1.86    0.00000     0.00  LINEAR    5.78962E-01    15.11    0.00000E+00     0.00
  -80.00     5.00       1.71 -999.99    1.71    0.00000     0.00  LINEAR    5.69412E-01    17.98    0.00000E+00     0.00
  -75.00     5.00       1.47 -999.99    1.47    0.00000     0.00  LINEAR    5.53820E-01    22.75    0.00000E+00     0.00
  -70.00     5.00       1.13 -999.99    1.13    0.00000     0.00  LINEAR    5.32648E-01    29.36    0.00000E+00     0.00
  -65.00     5.00       0.70 -999.99    0.70    0.00000     0.00  LINEAR    5.06491E-01    37.78    0.00000E+00     0.00
  -60.00     5.00       0.16 -999.99    0.16    0.00000     0.00  LINEAR    4.76042E-01    47.94    0.00000E+00     0.00
  -55.00     5.00      -0.49 -999.99   -0.49    0.00000     0.00  LINEAR    4.42046E-01    59.75    0.00000E+00     0.00
  -50.00     5.00      -1.24 -999.99   -1.24    0.00000     0.00  LINEAR    4.05252E-01    73.12    0.00000E+00     0.00
  -45.00     5.00      -2.12 -999.99   -2.12    0.00000     0.00  LINEAR    3.66386E-01    87.97    0.00000E+00     0.00
  -40.00     5.00      -3.13 -999.99   -3.13    0.00000     0.00  LINEAR    3.26109E-01   104.16    0.00000E+00     0.00
  -35.00     5.00      -4.30 -999.99   -4.30    0.00000     0.00  LINEAR    2.85001E-01   121.59    0.00000E+00     0.00
  -30.00     5.00      -5.66 -999.99   -5.66    0.00000     0.00  LINEAR    2.43542E-01   140.12    0.00000E+00     0.00
  -25.00     5.00      -7.28 -999.99   -7.28    0.00000     0.00  LINEAR    2.02100E-01   159.61    0.00000E+00     0.00
  -20.00     5.00      -9.26 -999.99   -9.26    0.00000     0.00  LINEAR    1.60926E-01   179.93    0.00000E+00     0.00
  -15.00     5.00     -11.80 -999.99  -11.80    0.00000     0.00  LINEAR    1.20151E-01  -159.08    0.00000E+00     0.00
  -10.00     5.00     -15.36 -999.99  -15.36    0.00000     0.00  LINEAR    7.97993E-02  -137.58    0.00000E+00     0.00
   -5.00     5.00     -21.40 -999.99  -21.40    0.00000     0.00  LINEAR    3.97966E-02  -115.75    0.00000E+00     0.00
    0.00     5.00    -999.99 -999.99 -999.99    0.00000     0.00            0.00000E+00     0.00    0.00000E+00     0.00
 -180.00    10.00    -999.99 -999.99 -999.99    0.00000     0.00            4.64954E-12    86.26    0.00000E+00     0.00
 -175.00    10.00     -21.39 -999.99  -21.39    0.00000     0.00  LINEAR    3.98190E-02  -137.58    0.00000E+00     0.00
 -170.00    10.00     -15.35 -999.99  -15.35    0.00000     0.00  LINEAR    7.98991E-02   178.96    0.00000E+00     0.00
 -165.00    10.00     -11.79 -999.99  -11.79    0.00000     0.00  LINEAR    1.20298E-01   136.23    0.00000E+00     0.00
 -160.00    10.00      -9.27 -999.99   -9.27    0.00000     0.00  LINEAR    1.60888E-01    94.52    0.00000E+00     0.00
 -155.00    10.00      -7.31 -999.99   -7.31    0.00000     0.00  LINEAR    2.01451E-01    54.12    0.00000E+00     0.00
 -150.00    10.00      -5.73 -999.99   -5.73    0.00000     0.00  LINEAR    2.41794E-01    15.30    0.00000E+00     0.00
 -145.00    10.00      -4.40 -999.99   -4.40    0.00000     0.00  LINEAR    2.81790E-01   -21.68    0.00000E+00     0.00
 -140.00    10.00      -3.26 -999.99   -3.26    0.00000     0.00  LINEAR    3.21303E-01   -56.51    0.00000E+00     0.00
 -135.00    10.00      -2.27 -999.99   -2.27    0.00000     0.00  LINEAR    3.60073E-01   -88.90    0.00000E+00     0.00
 -130.00    10.00      -1.41 -999.99   -1.41    0.00000     0.00  LINEAR    3.97639E-01  -118.57    0.00000E+00     0.00
 -125.00    10.00      -0.66 -999.99   -0.66    0.00000     0.00  LINEAR    4.33345E-01  -145.28    0.00000E+00     0.00
 -120.00    10.00      -0.02 -999.99   -0.02    0.00000     0.00  LINEAR    4.66413E-01  -168.84    0.00000E+00     0.00
 -115.00    10.00       0.51 -999.99    0.51    0.00000     0.00  LINEAR    4.96029E-01   170.94    0.00000E+00     0.00
 -110.00    10.00       0.95 -999.99    0.95    0.00000     0.00  LINEAR    5.21425E-01   154.20    0.00000E+00     0.00
 -105.00    10.00       1.28 -999.99    1.28    0.00000     0.00  LINEAR    5.41926E-01   141.05    0.00000E+00     0.00
 -100.00    10.00       1.52 -999.99    1.52    0.00000     0.00  LINEAR    5.56981E-01   131.59    0.00000E+00     0.00
  -95.00    10.00       1.66 -999.99    1.66    0.00000     0.00  LINEAR    5.66182E-01   125.89    0.00000E+00     0.00
  -90.00    10.00       1.71 -999.99    1.71    0.00000     0.00  LINEAR    5.69277E-01   123.99    0.00000E+00     0.00
  -85.00    10.00       1.66 -999.99    1.66    0.00000     0.00  LINEAR    5.66182E-01   125.89    0.00000E+00     0.00
  -80.00    10.00       1.52 -999.99    1.52    0.00000     0.00  LINEAR    5.56981E-01   131.59    0.00000E+00     0.00
  -75.00    10.00       1.28 -999.99    1.28    0.00000     0.00  LINEAR    5.41926E-01   141.05    0.00000E+00     0.00
  -70.00    10.00       0.95 -999.99    0.95    0.00000     0.00  LINEAR    5.21425E-01   154.20    0.00000E+00     0.00
  -65.00    10.00       0.51 -999.99    0.51    0.00000     0.00  LINEAR    4.96029E-01   170.94    0.00000E+00     0.00
  -60.00    10.00      -0.02 -999.99   -0.02    0.00000     0.00  LINEAR    4.66413E-01  -168.84    0.00000E+00     0.00
  -55.00    10.00      -0.66 -999.99   -0.66    0.00000     0.00  LINEAR    4.33345E-01  -145.28    0.00000E+00     0.00
  -50.00    10.00      -1.41 -999.99   -1.41    0.00000     0.00  LINEAR    3.97639E-01  -118.57    0.00000E+00     0.00
  -45.00    10.00      -2.27 -999.99   -2.27    0.00000     0.00  LINEAR    3.60073E-01   -88.90    0.00000E+00     0.00
  -40.00    10.00      -3.26 -999.99   -3.26    0.00000     0.00  LINEAR    3.21303E-01   -56.51    0.00000E+00     0.00
  -35.00    10.00      -4.40 -999.99   -4.40    0.00000     0.00  LINEAR    2.81790E-01   -21.68    0.00000E+00     0.00
  -30.00    10.00      -5.73 -999.99   -5.73    0.00000     0.00  LINEAR    2.41794E-01    15.30    0.00000E+00     0.00
  -25.00    10.00      -7.31 -999.99   -7.31    0.00000     0.00  LINEAR    2.01451E-01    54.12    0.00000E+00     0.00
  -20.00    10.00      -9.27 -999.99   -9.27    0.00000     0.00  LINEAR    1.60888E-01    94.52    0.00000E+00     0.00
  -15.00    10.00     -11.79 -999.99  -11.79    0.00000     0.00  LINEAR    1.20298E-01   136.23    0.00000E+00     0.00
  -10.00    10.00     -15.35 -999.99  -15.35    0.00000     0.00  LINEAR    7.98991E-02   178.96    0.00000E+00     0.00
   -5.00    10.00     -21.39 -999.99  -21.39    0.00000     0.00  LINEAR    3.98190E-02  -137.58    0.00000E+00     0.00
    0.00    10.00    -999.99 -999.99 -999.99    0.00000     0.00            0.00000E+00     0.00    0.00000E+00     0.00
 -180.00    15.00    -999.99 -999.99 -999.99    0.00000     0.00            4.64954E-12    86.26    0.00000E+00     0.00
 -175.00    15.00     -21.39 -999.99  -21.39    0.00000     0.00  LINEAR    3.98443E-02  -159.06    0.00000E+00     0.00
 -170.00    15.00     -15.34 -999.99  -15.34    0.00000     0.00  LINEAR    7.99472E-02   136.24    0.00000E+00     0.00
 -165.00    15.00     -11.81 -999.99  -11.81    0.00000     0.00  LINEAR    1.20052E-01    72.62    0.00000E+00     0.00
 -160.00    15.00      -9.33 -999.99   -9.33    0.00000     0.00  LINEAR    1.59783E-01    10.43    0.00000E+00     0.00
 -155.00    15.00      -7.41 -999.99   -7.41    0.00000     0.00  LINEAR    1.99196E-01   -49.96    0.00000E+00     0.00
 -150.00    15.00      -5.84 -999.99   -5.84    0.00000     0.00  LINEAR    2.38673E-01  -108.01    0.00000E+00     0.00
 -145.00    15.00      -4.51 -999.99   -4.51    0.00000     0.00  LINEAR    2.78253E-01  -163.15    0.00000E+00     0.00
 -140.00    15.00      -3.37 -999.99   -3.37    0.00000     0.00  LINEAR    3.17316E-01   145.12    0.00000E+00     0.00
 -135.00    15.00      -2.39 -999.99   -2.39    0.00000     0.00  LINEAR    3.54938E-01    97.14    0.00000E+00     0.00
 -130.00    15.00      -1.57 -999.99   -1.57    0.00000     0.00  LINEAR    3.90408E-01    53.18    0.00000E+00     0.00
 -125.00    15.00      -0.86 -999.99   -0.86    0.00000     0.00  LINEAR    4.23368E-01    13.52    0.00000E+00     0.00
 -120.00    15.00      -0.26 -999.99   -0.26    0.00000     0.00  LINEAR    4.53593E-01   -21.53    0.00000E+00     0.00
 -115.00    15.00       0.24 -999.99    0.24    0.00000     0.00  LINEAR    4.80735E-01   -51.69    0.00000E+00     0.00
 -110.00    15.00       0.66 -999.99    0.66    0.00000     0.00  LINEAR    5.04234E-01   -76.71    0.00000E+00     0.00
 -105.00    15.00       0.98 -999.99    0.98    0.00000     0.00  LINEAR    5.23417E-01   -96.36    0.00000E+00     0.00
 -100.00    15.00       1.21 -999.99    1.21    0.00000     0.00  LINEAR    5.37636E-01  -110.50    0.00000E+00     0.00
  -95.00    15.00       1.35 -999.99    1.35    0.00000     0.00  LINEAR    5.46381E-01  -119.02    0.00000E+00     0.00
  -90.00    15.00       1.40 -999.99    1.40    0.00000     0.00  LINEAR    5.49332E-01  -121.87    0.00000E+00     0.00
  -85.00    15.00       1.35 -999.99    1.35    0.00000     0.00  LINEAR    5.46381E-01  -119.02    0.00000E+00     0.00
  -80.00    15.00       1.21 -999.99    1.21    0.00000     0.00  LINEAR    5.37636E-01  -110.50    0.00000E+00     0.00
  -75.00    15.00       0.98 -999.99    0.98    0.00000     0.00  LINEAR    5.23417E-01   -96.36    0.00000E+00     0.00
  -70.00    15.00       0.66 -999.99    0.66    0.00000     0.00  LINEAR    5.04234E-01   -76.71    0.00000E+00     0.00
  -65.00    15.00       0.24 -999.99    0.24    0.00000     0.00  LINEAR    4.80735E-01   -51.69    0.00000E+00     0.00
  -60.00    15.00      -0.26 -999.99   -0.26    0.00000     0.00  LINEAR    4.53593E-01   -21.53    0.00000E+00     0.00
  -55.00    15.00      -0.86 -999.99   -0.86    0.00000     0.00  LINEAR    4.23368E-01    13.52    0.00000E+00     0.00
  -50.00    15.00      -1.57 -999.99   -1.57    0.00000     0.00  LINEAR    3.90408E-01    53.18    0.00000E+00     0.00
  -45.00    15.00      -2.39 -999.99   -2.39    0.00000     0.00  LINEAR    3.54938E-01    97.14    0.00000E+00     0.00
  -40.00    15.00      -3.37 -999.99   -3.37    0.00000     0.00  LINEAR    3.17316E-01   145.12    0.00000E+00     0.00
  -35.00    15.00      -4.51 -999.99   -4.51    0.00000     0.00  LINEAR    2.78253E-01  -163.15    0.00000E+00     0.00
  -30.00    15.00      -5.84 -999.99   -5.84    0.00000     0.00  LINEAR    2.38673E-01  -108.01    0.00000E+00     0.00
  -25.00    15.00      -7.41 -999.99   -7.41    0.00000     0.00  LINEAR    1.99196E-01   -49.96    0.00000E+00     0.00
  -20.00    15.00      -9.33 -999.99   -9.33    0.00000     0.00  LINEAR    1.59783E-01    10.43    0.00000E+00     0.00
  -15.00    15.00     -11.81 -999.99  -11.81    0.00000     0.00  LINEAR    1.20052E-01    72.62    0.00000E+00     0.00
  -10.00    15.00     -15.34 -999.99  -15.34    0.00000     0.00  LINEAR    7.99472E-02   136.24    0.00000E+00     0.00
   -5.00    15.00     -21.39 -999.99  -21.39    0.00000     0.00  LINEAR    3.98443E-02  -159.06    0.00000E+00     0.00
    0.00    15.00    -999.99 -999.99 -999.99    0.00000     0.00            0.00000E+00     0.00    0.00000E+00     0.00
 -180.00    20.00    -999.99 -999.99 -999.99    0.00000     0.00            4.64954E-12    86.26    0.00000E+00     0.00
 -175.00    20.00     -21.38 -999.99  -21.38    0.00000     0.00  LINEAR    3.98678E-02   179.96    0.00000E+00     0.00
 -170.00    20.00     -15.35 -999.99  -15.35    0.00000     0.00  LINEAR    7.98782E-02    94.55    0.00000E+00     0.00
 -165.00    20.00     -11.86 -999.99  -11.86    0.00000     0.00  LINEAR    1.19368E-01    10.44    0.00000E+00     0.00
 -160.00    20.00      -9.41 -999.99   -9.41    0.00000     0.00  LINEAR    1.58315E-01   -71.95    0.00000E+00     0.00
 -155.00    20.00      -7.49 -999.99   -7.49    0.00000     0.00  LINEAR    1.97474E-01  -151.80    0.00000E+00     0.00
 -150.00    20.00      -5.92 -999.99   -5.92    0.00000     0.00  LINEAR    2.36561E-01   131.78    0.00000E+00     0.00
 -145.00    20.00      -4.63 -999.99   -4.63    0.00000     0.00  LINEAR    2.74295E-01    59.28    0.00000E+00     0.00
 -140.00    20.00      -3.56 -999.99   -3.56    0.00000     0.00  LINEAR    3.10309E-01    -9.02    0.00000E+00     0.00
 -135.00    20.00      -2.63 -999.99   -2.63    0.00000     0.00  LINEAR    3.45417E-01   -72.65    0.00000E+00     0.00
 -130.00    20.00      -1.80 -999.99   -1.80    0.00000     0.00  LINEAR    3.80019E-01  -130.96    0.00000E+00     0.00
 -125.00    20.00      -1.07 -999.99   -1.07    0.00000     0.00  LINEAR    4.13250E-01   176.61    0.00000E+00     0.00
 -120.00    20.00      -0.45 -999.99   -0.45    0.00000     0.00  LINEAR    4.43707E-01   130.44    0.00000E+00     0.00
 -115.00    20.00       0.05 -999.99    0.05    0.00000     0.00  LINEAR    4.70358E-01    90.80    0.00000E+00     0.00
 -110.00    20.00       0.46 -999.99    0.46    0.00000     0.00  LINEAR    4.92719E-01    57.91    0.00000E+00     0.00
 -105.00    20.00       0.76 -999.99    0.76    0.00000     0.00  LINEAR    5.10554E-01    32.04    0.00000E+00     0.00
 -100.00    20.00       0.98 -999.99    0.98    0.00000     0.00  LINEAR    5.23615E-01    13.39    0.00000E+00     0.00
  -95.00    20.00       1.12 -999.99    1.12    0.00000     0.00  LINEAR    5.31613E-01     2.13    0.00000E+00     0.00
  -90.00    20.00       1.16 -999.99    1.16    0.00000     0.00  LINEAR    5.34309E-01    -1.64    0.00000E+00     0.00
  -85.00    20.00       1.12 -999.99    1.12    0.00000     0.00  LINEAR    5.31613E-01     2.13    0.00000E+00     0.00
  -80.00    20.00       0.98 -999.99    0.98    0.00000     0.00  LINEAR    5.23615E-01    13.39    0.00000E+00     0.00
  -75.00    20.00       0.76 -999.99    0.76    0.00000     0.00  LINEAR    5.10554E-01    32.04    0.00000E+00     0.00
  -70.00    20.00       0.46 -999.99    0.46    0.00000     0.00  LINEAR    4.92719E-01    57.91    0.00000E+00     0.00
  -65.00    20.00       0.05 -999.99    0.05    0.00000     0.00  LINEAR    4.70358E-01    90.80    0.00000E+00     0.00
  -60.00    20.00      -0.45 -999.99   -0.45    0.00000     0.00  LINEAR    4.43707E-01   130.44    0.00000E+00     0.00
  -55.00    20.00      -1.07 -999.99   -1.07    0.00000     0.00  LINEAR    4.13250E-01   176.61    0.00000E+00     0.00
  -50.00    20.00      -1.80 -999.99   -1.80    0.00000     0.00  LINEAR    3.80019E-01  -130.96    0.00000E+00     0.00
  -45.00    20.00      -2.63 -999.99   -2.63    0.00000     0.00  LINEAR    3.45417E-01   -72.65    0.00000E+00     0.00
  -40.00    20.00      -3.56 -999.99   -3.56    0.00000     0.00  LINEAR    3.10309E-01    -9.02    0.00000E+00     0.00
  -35.00    20.00      -4.63 -999.99   -4.63    0.00000     0.00  LINEAR    2.74295E-01    59.28    0.00000E+00     0.00
  -30.00    20.00      -5.92 -999.99   -5.92    0.00000     0.00  LINEAR    2.36561E-01   131.78    0.00000E+00     0.00
  -25.00    20.00      -7.49 -999.99   -7.49    0.00000     0.00  LINEAR    1.97474E-01  -151.80    0.00000E+00     0.00
  -20.00    20.00      -9.41 -999.99   -9.41    0.00000     0.00  LINEAR    1.58315E-01   -71.95    0.00000E+00     0.00
  -15.00    20.00     -11.86 -999.99  -11.86    0.00000     0.00  LINEAR    1.19368E-01    10.44    0.00000E+00     0.00
  -10.00    20.00     -15.35 -999.99  -15.35    0.00000     0.00  LINEAR    7.98782E-02    94.55    0.00000E+00     0.00
   -5.00    20.00     -21.38 -999.99  -21.38    0.00000     0.00  LINEAR    3.98678E-02   179.96    0.00000E+00     0.00
    0.00    20.00    -999.99 -999.99 -999.99    0.00000     0.00            0.00000E+00     0.00    0.00000E+00     0.00
 -180.00    25.00    -999.99 -999.99 -999.99    0.00000     0.00            4.64954E-12    86.26    0.00000E+00     0.00
 -175.00    25.00     -21.38 -999.99  -21.38    0.00000     0.00  LINEAR    3.98852E-02   159.66    0.00000E+00     0.00
 -170.00    25.00     -15.37 -999.99  -15.37    0.00000     0.00  LINEAR    7.96745E-02    54.17    0.00000E+00     0.00
 -165.00    25.00     -11.92 -999.99  -11.92    0.00000     0.00  LINEAR    1.18545E-01   -49.93    0.00000E+00     0.00
 -160.00    25.00      -9.46 -999.99   -9.46    0.00000     0.00  LINEAR    1.57308E-01  -151.78    0.00000E+00     0.00
 -155.00    25.00      -7.56 -999.99   -7.56    0.00000     0.00  LINEAR    1.95887E-01   109.92    0.00000E+00     0.00
 -150.00    25.00      -6.06 -999.99   -6.06    0.00000     0.00  LINEAR    2.32629E-01    15.67    0.00000E+00     0.00
 -145.00    25.00      -4.82 -999.99   -4.82    0.00000     0.00  LINEAR    2.68339E-01   -74.22    0.00000E+00     0.00
 -140.00    25.00      -3.72 -999.99   -3.72    0.00000     0.00  LINEAR    3.04658E-01  -158.77    0.00000E+00     0.00
 -135.00    25.00      -2.76 -999.99   -2.76    0.00000     0.00  LINEAR    3.40263E-01   122.93    0.00000E+00     0.00
 -130.00    25.00      -1.96 -999.99   -1.96    0.00000     0.00  LINEAR    3.73070E-01    51.22    0.00000E+00     0.00
 -125.00    25.00      -1.29 -999.99   -1.29    0.00000     0.00  LINEAR    4.03163E-01   -13.60    0.00000E+00     0.00
 -120.00    25.00      -0.70 -999.99   -0.70    0.00000     0.00  LINEAR    4.31547E-01   -71.01    0.00000E+00     0.00
 -115.00    25.00      -0.18 -999.99   -0.18    0.00000     0.00  LINEAR    4.58043E-01  -120.39    0.00000E+00     0.00
 -110.00    25.00       0.25 -999.99    0.25    0.00000     0.00  LINEAR    4.81363E-01  -161.26    0.00000E+00     0.00
 -105.00    25.00       0.59 -999.99    0.59    0.00000     0.00  LINEAR    5.00228E-01   166.66    0.00000E+00     0.00
 -100.00    25.00       0.82 -999.99    0.82    0.00000     0.00  LINEAR    5.13922E-01   143.59    0.00000E+00     0.00
  -95.00    25.00       0.96 -999.99    0.96    0.00000     0.00  LINEAR    5.22179E-01   129.69    0.00000E+00     0.00
  -90.00    25.00       1.01 -999.99    1.01    0.00000     0.00  LINEAR    5.24935E-01   125.04    0.00000E+00     0.00
  -85.00    25.00       0.96 -999.99    0.96    0.00000     0.00  LINEAR    5.22179E-01   129.69    0.00000E+00     0.00
  -80.00    25.00       0.82 -999.99    0.82    0.00000     0.00  LINEAR    5.13922E-01   143.59    0.00000E+00     0.00
  -75.00    25.00       0.59 -999.99    0.59    0.00000     0.00  LINEAR    5.00228E-01   166.66    0.00000E+00     0.00
  -70.00    25.00       0.25 -999.99    0.25    0.00000     0.00  LINEAR    4.81363E-01  -161.26    0.00000E+00     0.00
  -65.00    25.00      -0.18 -999.99   -0.18    0.00000     0.00  LINEAR    4.58043E-01  -120.39    0.00000E+00     0.00
  -60.00    25.00      -0.70 -999.99   -0.70    0.00000     0.00  LINEAR    4.31547E-01   -71.01    0.00000E+00     0.00
  -55.00    25.00      -1.29 -999.99   -1.29    0.00000     0.00  LINEAR    4.03163E-01   -13.60    0.00000E+00     0.00
  -50.00    25.00      -1.96 -999.99   -1.96    0.00000     0.00  LINEAR    3.73070E-01    51.22    0.00000E+00     0.00
  -45.00    25.00      -2.76 -999.99   -2.76    0.00000     0.00  LINEAR    3.40263E-01   122.93    0.00000E+00     0.00
  -40.00    25.00      -3.72 -999.99   -3.72    0.00000     0.00  LINEAR    3.04658E-01  -158.77    0.00000E+00     0.00
  -35.00    25.00      -4.82 -999.99   -4.82    0.00000     0.00  LINEAR    2.68339E-01   -74.22    0.00000E+00     0.00
  -30.00    25.00      -6.06 -999.99   -6.06    0.00000     0.00  LINEAR    2.32629E-01    15.67    0.00000E+00     0.00
  -25.00    25.00      -7.56 -999.99   -7.56    0.00000     0.00  LINEAR    1.95887E-01   109.92    0.00000E+00     0.00
  -20.00    25.00      -9.46 -999.99   -9.46    0.00000     0.00  LINEAR    1.57308E-01  -151.78    0.00000E+00     0.00
  -15.00    25.00     -11.92 -999.99  -11.92    0.00000     0.00  LINEAR    1.18545E-01   -49.93    0.00000E+00     0.00
  -10.00    25.00     -15.37 -999.99  -15.37    0.00000     0.00  LINEAR    7.96745E-02    54.17    0.00000E+00     0.00
   -5.00    25.00     -21.38 -999.99  -21.38    0.00000     0.00  LINEAR    3.98852E-02   159.66    0.00000E+00     0.00
    0.00    25.00    -999.99 -999.99 -999.99    0.00000     0.00            0.00000E+00     0.00    0.00000E+00     0.00
 -180.00    30.00    -999.99 -999.99 -999.99    0.00000     0.00            4.64954E-12    86.26    0.00000E+00     0.00
 -175.00    30.00     -21.38 -999.99  -21.38    0.00000     0.00  LINEAR    3.98927E-02   140.19    0.00000E+00     0.00
 -170.00    30.00     -15.40 -999.99  -15.40    0.00000     0.00  LINEAR    7.93722E-02    15.36    0.00000E+00     0.00
 -165.00    30.00     -11.97 -999.99  -11.97    0.00000     0.00  LINEAR    1.17888E-01  -107.96    0.00000E+00     0.00
 -160.00    30.00      -9.51 -999.99   -9.51    0.00000     0.00  LINEAR    1.56405E-01   131.82    0.00000E+00     0.00
 -155.00    30.00      -7.68 -999.99   -7.68    0.00000     0.00  LINEAR    1.93078E-01    15.69    0.00000E+00     0.00
 -150.00    30.00      -6.21 -999.99   -6.21    0.00000     0.00  LINEAR    2.28669E-01   -96.16    0.00000E+00     0.00
 -145.00    30.00      -4.92 -999.99   -4.92    0.00000     0.00  LINEAR    2.65252E-01   157.64    0.00000E+00     0.00
 -140.00    30.00      -3.85 -999.99   -3.85    0.00000     0.00  LINEAR    3.00066E-01    58.05    0.00000E+00     0.00
 -135.00    30.00      -2.96 -999.99   -2.96    0.00000     0.00  LINEAR    3.32546E-01   -34.87    0.00000E+00     0.00
 -130.00    30.00      -2.14 -999.99   -2.14    0.00000     0.00  LINEAR    3.65409E-01  -120.32    0.00000E+00     0.00
 -125.00    30.00      -1.40 -999.99   -1.40    0.00000     0.00  LINEAR    3.97788E-01   162.81    0.00000E+00     0.00
 -120.00    30.00      -0.80 -999.99   -0.80    0.00000     0.00  LINEAR    4.26431E-01    95.07    0.00000E+00     0.00
 -115.00    30.00      -0.33 -999.99   -0.33    0.00000     0.00  LINEAR    4.50296E-01    36.69    0.00000E+00     0.00
 -110.00    30.00       0.05 -999.99    0.05    0.00000     0.00  LINEAR    4.70208E-01   -11.92    0.00000E+00     0.00
 -105.00    30.00       0.35 -999.99    0.35    0.00000     0.00  LINEAR    4.86618E-01   -50.24    0.00000E+00     0.00
 -100.00    30.00       0.57 -999.99    0.57    0.00000     0.00  LINEAR    4.99068E-01   -77.86    0.00000E+00     0.00
  -95.00    30.00       0.70 -999.99    0.70    0.00000     0.00  LINEAR    5.06853E-01   -94.53    0.00000E+00     0.00
  -90.00    30.00       0.75 -999.99    0.75    0.00000     0.00  LINEAR    5.09498E-01  -100.10    0.00000E+00     0.00
  -85.00    30.00       0.70 -999.99    0.70    0.00000     0.00  LINEAR    5.06853E-01   -94.53    0.00000E+00     0.00
  -80.00    30.00       0.57 -999.99    0.57    0.00000     0.00  LINEAR    4.99068E-01   -77.86    0.00000E+00     0.00
  -75.00    30.00       0.35 -999.99    0.35    0.00000     0.00  LINEAR    4.86618E-01   -50.24    0.00000E+00     0.00
  -70.00    30.00       0.05 -999.99    0.05    0.00000     0.00  LINEAR    4.70208E-01   -11.92    0.00000E+00     0.00
  -65.00    30.00      -0.33 -999.99   -0.33    0.00000     0.00  LINEAR    4.50296E-01    36.69    0.00000E+00     0.00
  -60.00    30.00      -0.80 -999.99   -0.80    0.00000     0.00  LINEAR    4.26431E-01    95.07    0.00000E+00     0.00
  -55.00    30.00      -1.40 -999.99   -1.40    0.00000     0.00  LINEAR    3.97788E-01   162.81    0.00000E+00     0.00
  -50.00    30.00      -2.14 -999.99   -2.14    0.00000     0.00  LINEAR    3.65409E-01  -120.32    0.00000E+00     0.00
  -45.00    30.00      -2.96 -999.99   -2.96    0.00000     0.00  LINEAR    3.32546E-01   -34.87    0.00000E+00     0.00
  -40.00    30.00      -3.85 -999.99   -3.85    0.00000     0.00  LINEAR    3.00066E-01    58.05    0.00000E+00     0.00
  -35.00    30.00      -4.92 -999.99   -4.92    0.00000     0.00  LINEAR    2.65252E-01   157.64    0.00000E+00     0.00
  -30.00    30.00      -6.21 -999.99   -6.21    0.00000     0.00  LINEAR    2.28669E-01   -96.16    0.00000E+00     0.00
  -25.00    30.00      -7.68 -999.99   -7.68    0.00000     0.00  LINEAR    1.93078E-01    15.69    0.00000E+00     0.00
  -20.00    30.00      -9.51 -999.99   -9.51    0.00000     0.00  LINEAR    1.56405E-01   131.82    0.00000E+00     0.00
  -15.00    30.00     -11.97 -999.99  -11.97    0.00000     0.00  LINEAR    1.17888E-01  -107.96    0.00000E+00     0.00
  -10.00    30.00     -15.40 -999.99  -15.40    0.00000     0.00  LINEAR    7.93722E-02    15.36    0.00000E+00     0.00
   -5.00    30.00     -21.38 -999.99  -21.38    0.00000     0.00  LINEAR    3.98927E-02   140.19    0.00000E+00     0.00
    0.00    30.00    -999.99 -999.99 -999.99    0.00000     0.00            0.00000E+00     0.00    0.00000E+00     0.00
 -180.00    35.00    -999.99 -999.99 -999.99    0.00000     0.00            4.64954E-12    86.26    0.00000E+00     0.00
 -175.00    35.00     -21.38 -999.99  -21.38    0.00000     0.00  LINEAR    3.98886E-02   121.68    0.00000E+00     0.00
 -170.00    35.00     -15.44 -999.99  -15.44    0.00000     0.00  LINEAR    7.90364E-02   -21.60    0.00000E+00     0.00
 -165.00    35.00     -12.00 -999.99  -12.00    0.00000     0.00  LINEAR    1.17431E-01  -163.07    0.00000E+00     0.00
 -160.00    35.00      -9.59 -999.99   -9.59    0.00000     0.00  LINEAR    1.54954E-01    59.34    0.00000E+00     0.00
 -155.00    35.00      -7.81 -999.99   -7.81    0.00000     0.00  LINEAR    1.90294E-01   -74.17    0.00000E+00     0.00
 -150.00    35.00      -6.29 -999.99   -6.29    0.00000     0.00  LINEAR    2.26637E-01   157.67    0.00000E+00     0.00
 -145.00    35.00      -5.06 -999.99   -5.06    0.00000     0.00  LINEAR    2.61221E-01    36.18    0.00000E+00     0.00
 -140.00    35.00      -4.02 -999.99   -4.02    0.00000     0.00  LINEAR    2.94378E-01   -78.71    0.00000E+00     0.00
 -135.00    35.00      -3.05 -999.99   -3.05    0.00000     0.00  LINEAR    3.29261E-01   174.41    0.00000E+00     0.00
 -130.00    35.00      -2.24 -999.99   -2.24    0.00000     0.00  LINEAR    3.61429E-01    76.68    0.00000E+00     0.00
[...]
  -70.00   340.00       0.47 -999.99    0.47    0.00000     0.00  LINEAR    4.93647E-01   108.00    0.00000E+00     0.00
  -65.00   340.00       0.06 -999.99    0.06    0.00000     0.00  LINEAR    4.70497E-01    75.52    0.00000E+00     0.00
  -60.00   340.00      -0.47 -999.99   -0.47    0.00000     0.00  LINEAR    4.43089E-01    36.34    0.00000E+00     0.00
  -55.00   340.00      -1.10 -999.99   -1.10    0.00000     0.00  LINEAR    4.12038E-01    -9.30    0.00000E+00     0.00
  -50.00   340.00      -1.84 -999.99   -1.84    0.00000     0.00  LINEAR    3.78425E-01   -61.14    0.00000E+00     0.00
  -45.00   340.00      -2.68 -999.99   -2.68    0.00000     0.00  LINEAR    3.43579E-01  -118.81    0.00000E+00     0.00
  -40.00   340.00      -3.62 -999.99   -3.62    0.00000     0.00  LINEAR    3.08274E-01   178.24    0.00000E+00     0.00
  -35.00   340.00      -4.70 -999.99   -4.70    0.00000     0.00  LINEAR    2.72157E-01   110.59    0.00000E+00     0.00
  -30.00   340.00      -5.99 -999.99   -5.99    0.00000     0.00  LINEAR    2.34560E-01    38.70    0.00000E+00     0.00
  -25.00   340.00      -7.56 -999.99   -7.56    0.00000     0.00  LINEAR    1.95865E-01   -37.16    0.00000E+00     0.00
  -20.00   340.00      -9.47 -999.99   -9.47    0.00000     0.00  LINEAR    1.57190E-01  -116.51    0.00000E+00     0.00
  -15.00   340.00     -11.91 -999.99  -11.91    0.00000     0.00  LINEAR    1.18673E-01   161.53    0.00000E+00     0.00
  -10.00   340.00     -15.39 -999.99  -15.39    0.00000     0.00  LINEAR    7.95328E-02    77.73    0.00000E+00     0.00
   -5.00   340.00     -21.40 -999.99  -21.40    0.00000     0.00  LINEAR    3.97735E-02    -7.51    0.00000E+00     0.00
    0.00   340.00    -999.99 -999.99 -999.99    0.00000     0.00            0.00000E+00     0.00    0.00000E+00     0.00
 -180.00   345.00    -999.99 -999.99 -999.99    0.00000     0.00            4.64954E-12    86.26    0.00000E+00     0.00
 -175.00   345.00     -21.40 -999.99  -21.40    0.00000     0.00  LINEAR    3.97719E-02   -28.46    0.00000E+00     0.00
 -170.00   345.00     -15.37 -999.99  -15.37    0.00000     0.00  LINEAR    7.96729E-02    36.14    0.00000E+00     0.00
 -165.00   345.00     -11.85 -999.99  -11.85    0.00000     0.00  LINEAR    1.19482E-01    99.57    0.00000E+00     0.00
 -160.00   345.00      -9.38 -999.99   -9.38    0.00000     0.00  LINEAR    1.58850E-01   161.51    0.00000E+00     0.00
 -155.00   345.00      -7.47 -999.99   -7.47    0.00000     0.00  LINEAR    1.97843E-01  -138.42    0.00000E+00     0.00
 -150.00   345.00      -5.91 -999.99   -5.91    0.00000     0.00  LINEAR    2.36845E-01   -80.73    0.00000E+00     0.00
 -145.00   345.00      -4.58 -999.99   -4.58    0.00000     0.00  LINEAR    2.75944E-01   -25.98    0.00000E+00     0.00
 -140.00   345.00      -3.44 -999.99   -3.44    0.00000     0.00  LINEAR    3.14608E-01    25.36    0.00000E+00     0.00
 -135.00   345.00      -2.47 -999.99   -2.47    0.00000     0.00  LINEAR    3.51987E-01    72.94    0.00000E+00     0.00
 -130.00   345.00      -1.63 -999.99   -1.63    0.00000     0.00  LINEAR    3.87380E-01   116.50    0.00000E+00     0.00
 -125.00   345.00      -0.92 -999.99   -0.92    0.00000     0.00  LINEAR    4.20382E-01   155.76    0.00000E+00     0.00
 -120.00   345.00      -0.32 -999.99   -0.32    0.00000     0.00  LINEAR    4.50708E-01  -169.56    0.00000E+00     0.00
 -115.00   345.00       0.19 -999.99    0.19    0.00000     0.00  LINEAR    4.77960E-01  -139.73    0.00000E+00     0.00
 -110.00   345.00       0.61 -999.99    0.61    0.00000     0.00  LINEAR    5.01563E-01  -115.00    0.00000E+00     0.00
 -105.00   345.00       0.94 -999.99    0.94    0.00000     0.00  LINEAR    5.20838E-01   -95.57    0.00000E+00     0.00
 -100.00   345.00       1.17 -999.99    1.17    0.00000     0.00  LINEAR    5.35133E-01   -81.60    0.00000E+00     0.00
  -95.00   345.00       1.31 -999.99    1.31    0.00000     0.00  LINEAR    5.43929E-01   -73.17    0.00000E+00     0.00
  -90.00   345.00       1.36 -999.99    1.36    0.00000     0.00  LINEAR    5.46898E-01   -70.36    0.00000E+00     0.00
  -85.00   345.00       1.31 -999.99    1.31    0.00000     0.00  LINEAR    5.43929E-01   -73.17    0.00000E+00     0.00
  -80.00   345.00       1.17 -999.99    1.17    0.00000     0.00  LINEAR    5.35133E-01   -81.60    0.00000E+00     0.00
  -75.00   345.00       0.94 -999.99    0.94    0.00000     0.00  LINEAR    5.20838E-01   -95.57    0.00000E+00     0.00
  -70.00   345.00       0.61 -999.99    0.61    0.00000     0.00  LINEAR    5.01563E-01  -115.00    0.00000E+00     0.00
  -65.00   345.00       0.19 -999.99    0.19    0.00000     0.00  LINEAR    4.77960E-01  -139.73    0.00000E+00     0.00
  -60.00   345.00      -0.32 -999.99   -0.32    0.00000     0.00  LINEAR    4.50708E-01  -169.56    0.00000E+00     0.00
  -55.00   345.00      -0.92 -999.99   -0.92    0.00000     0.00  LINEAR    4.20382E-01   155.76    0.00000E+00     0.00
  -50.00   345.00      -1.63 -999.99   -1.63    0.00000     0.00  LINEAR    3.87380E-01   116.50    0.00000E+00     0.00
  -45.00   345.00      -2.47 -999.99   -2.47    0.00000     0.00  LINEAR    3.51987E-01    72.94    0.00000E+00     0.00
  -40.00   345.00      -3.44 -999.99   -3.44    0.00000     0.00  LINEAR    3.14608E-01    25.36    0.00000E+00     0.00
  -35.00   345.00      -4.58 -999.99   -4.58    0.00000     0.00  LINEAR    2.75944E-01   -25.98    0.00000E+00     0.00
  -30.00   345.00      -5.91 -999.99   -5.91    0.00000     0.00  LINEAR    2.36845E-01   -80.73    0.00000E+00     0.00
  -25.00   345.00      -7.47 -999.99   -7.47    0.00000     0.00  LINEAR    1.97843E-01  -138.42    0.00000E+00     0.00
  -20.00   345.00      -9.38 -999.99   -9.38    0.00000     0.00  LINEAR    1.58850E-01   161.51    0.00000E+00     0.00
  -15.00   345.00     -11.85 -999.99  -11.85    0.00000     0.00  LINEAR    1.19482E-01    99.57    0.00000E+00     0.00
  -10.00   345.00     -15.37 -999.99  -15.37    0.00000     0.00  LINEAR    7.96729E-02    36.14    0.00000E+00     0.00
   -5.00   345.00     -21.40 -999.99  -21.40    0.00000     0.00  LINEAR    3.97719E-02   -28.46    0.00000E+00     0.00
    0.00   345.00    -999.99 -999.99 -999.99    0.00000     0.00            0.00000E+00     0.00    0.00000E+00     0.00
 -180.00   350.00    -999.99 -999.99 -999.99    0.00000     0.00            4.64954E-12    86.26    0.00000E+00     0.00
 -175.00   350.00     -21.40 -999.99  -21.40    0.00000     0.00  LINEAR    3.97700E-02   -49.93    0.00000E+00     0.00
 -170.00   350.00     -15.37 -999.99  -15.37    0.00000     0.00  LINEAR    7.97078E-02    -6.52    0.00000E+00     0.00
 -165.00   350.00     -11.82 -999.99  -11.82    0.00000     0.00  LINEAR    1.19884E-01    36.13    0.00000E+00     0.00
 -160.00   350.00      -9.30 -999.99   -9.30    0.00000     0.00  LINEAR    1.60190E-01    77.70    0.00000E+00     0.00
 -155.00   350.00      -7.36 -999.99   -7.36    0.00000     0.00  LINEAR    2.00421E-01   117.95    0.00000E+00     0.00
 -150.00   350.00      -5.78 -999.99   -5.78    0.00000     0.00  LINEAR    2.40396E-01   156.59    0.00000E+00     0.00
 -145.00   350.00      -4.45 -999.99   -4.45    0.00000     0.00  LINEAR    2.79989E-01  -166.64    0.00000E+00     0.00
 -140.00   350.00      -3.32 -999.99   -3.32    0.00000     0.00  LINEAR    3.19069E-01  -132.04    0.00000E+00     0.00
 -135.00   350.00      -2.33 -999.99   -2.33    0.00000     0.00  LINEAR    3.57385E-01   -99.87    0.00000E+00     0.00
 -130.00   350.00      -1.48 -999.99   -1.48    0.00000     0.00  LINEAR    3.94496E-01   -70.42    0.00000E+00     0.00
 -125.00   350.00      -0.73 -999.99   -0.73    0.00000     0.00  LINEAR    4.29772E-01   -43.91    0.00000E+00     0.00
 -120.00   350.00      -0.09 -999.99   -0.09    0.00000     0.00  LINEAR    4.62456E-01   -20.55    0.00000E+00     0.00
 -115.00   350.00       0.44 -999.99    0.44    0.00000     0.00  LINEAR    4.91753E-01    -0.50    0.00000E+00     0.00
 -110.00   350.00       0.87 -999.99    0.87    0.00000     0.00  LINEAR    5.16899E-01    16.10    0.00000E+00     0.00
 -105.00   350.00       1.21 -999.99    1.21    0.00000     0.00  LINEAR    5.37216E-01    29.13    0.00000E+00     0.00
 -100.00   350.00       1.45 -999.99    1.45    0.00000     0.00  LINEAR    5.52149E-01    38.50    0.00000E+00     0.00
  -95.00   350.00       1.59 -999.99    1.59    0.00000     0.00  LINEAR    5.61279E-01    44.15    0.00000E+00     0.00
  -90.00   350.00       1.63 -999.99    1.63    0.00000     0.00  LINEAR    5.64352E-01    46.04    0.00000E+00     0.00
  -85.00   350.00       1.59 -999.99    1.59    0.00000     0.00  LINEAR    5.61279E-01    44.15    0.00000E+00     0.00
  -80.00   350.00       1.45 -999.99    1.45    0.00000     0.00  LINEAR    5.52149E-01    38.50    0.00000E+00     0.00
  -75.00   350.00       1.21 -999.99    1.21    0.00000     0.00  LINEAR    5.37216E-01    29.13    0.00000E+00     0.00
  -70.00   350.00       0.87 -999.99    0.87    0.00000     0.00  LINEAR    5.16899E-01    16.10    0.00000E+00     0.00
  -65.00   350.00       0.44 -999.99    0.44    0.00000     0.00  LINEAR    4.91753E-01    -0.50    0.00000E+00     0.00
  -60.00   350.00      -0.09 -999.99   -0.09    0.00000     0.00  LINEAR    4.62456E-01   -20.55    0.00000E+00     0.00
  -55.00   350.00      -0.73 -999.99   -0.73    0.00000     0.00  LINEAR    4.29772E-01   -43.91    0.00000E+00     0.00
  -50.00   350.00      -1.48 -999.99   -1.48    0.00000     0.00  LINEAR    3.94496E-01   -70.42    0.00000E+00     0.00
  -45.00   350.00      -2.33 -999.99   -2.33    0.00000     0.00  LINEAR    3.57385E-01   -99.87    0.00000E+00     0.00
  -40.00   350.00      -3.32 -999.99   -3.32    0.00000     0.00  LINEAR    3.19069E-01  -132.04    0.00000E+00     0.00
  -35.00   350.00      -4.45 -999.99   -4.45    0.00000     0.00  LINEAR    2.79989E-01  -166.64    0.00000E+00     0.00
  -30.00   350.00      -5.78 -999.99   -5.78    0.00000     0.00  LINEAR    2.40396E-01   156.59    0.00000E+00     0.00
  -25.00   350.00      -7.36 -999.99   -7.36    0.00000     0.00  LINEAR    2.00421E-01   117.95    0.00000E+00     0.00
  -20.00   350.00      -9.30 -999.99   -9.30    0.00000     0.00  LINEAR    1.60190E-01    77.70    0.00000E+00     0.00
  -15.00   350.00     -11.82 -999.99  -11.82    0.00000     0.00  LINEAR    1.19884E-01    36.13    0.00000E+00     0.00
  -10.00   350.00     -15.37 -999.99  -15.37    0.00000     0.00  LINEAR    7.97078E-02    -6.52    0.00000E+00     0.00
   -5.00   350.00     -21.40 -999.99  -21.40    0.00000     0.00  LINEAR    3.97700E-02   -49.93    0.00000E+00     0.00
    0.00   350.00    -999.99 -999.99 -999.99    0.00000     0.00            0.00000E+00     0.00    0.00000E+00     0.00
 -180.00   355.00    -999.99 -999.99 -999.99    0.00000     0.00            4.64954E-12    86.26    0.00000E+00     0.00
 -175.00   355.00     -21.40 -999.99  -21.40    0.00000     0.00  LINEAR    3.97719E-02   -71.75    0.00000E+00     0.00
 -170.00   355.00     -15.37 -999.99  -15.37    0.00000     0.00  LINEAR    7.97008E-02   -49.93    0.00000E+00     0.00
 -165.00   355.00     -11.82 -999.99  -11.82    0.00000     0.00  LINEAR    1.19932E-01   -28.48    0.00000E+00     0.00
 -160.00   355.00      -9.28 -999.99   -9.28    0.00000     0.00  LINEAR    1.60542E-01    -7.54    0.00000E+00     0.00
 -155.00   355.00      -7.31 -999.99   -7.31    0.00000     0.00  LINEAR    2.01514E-01    12.72    0.00000E+00     0.00
 -150.00   355.00      -5.69 -999.99   -5.69    0.00000     0.00  LINEAR    2.42719E-01    32.14    0.00000E+00     0.00
 -145.00   355.00      -4.33 -999.99   -4.33    0.00000     0.00  LINEAR    2.83914E-01    50.59    0.00000E+00     0.00
 -140.00   355.00      -3.17 -999.99   -3.17    0.00000     0.00  LINEAR    3.24739E-01    67.93    0.00000E+00     0.00
 -135.00   355.00      -2.16 -999.99   -2.16    0.00000     0.00  LINEAR    3.64722E-01    84.04    0.00000E+00     0.00
 -130.00   355.00      -1.28 -999.99   -1.28    0.00000     0.00  LINEAR    4.03291E-01    98.79    0.00000E+00     0.00
 -125.00   355.00      -0.53 -999.99   -0.53    0.00000     0.00  LINEAR    4.39791E-01   112.08    0.00000E+00     0.00
 -120.00   355.00       0.11 -999.99    0.11    0.00000     0.00  LINEAR    4.73509E-01   123.81    0.00000E+00     0.00
 -115.00   355.00       0.65 -999.99    0.65    0.00000     0.00  LINEAR    5.03700E-01   133.89    0.00000E+00     0.00
 -110.00   355.00       1.08 -999.99    1.08    0.00000     0.00  LINEAR    5.29631E-01   142.25    0.00000E+00     0.00
 -105.00   355.00       1.42 -999.99    1.42    0.00000     0.00  LINEAR    5.50617E-01   148.82    0.00000E+00     0.00
 -100.00   355.00       1.66 -999.99    1.66    0.00000     0.00  LINEAR    5.66070E-01   153.55    0.00000E+00     0.00
  -95.00   355.00       1.81 -999.99    1.81    0.00000     0.00  LINEAR    5.75533E-01   156.40    0.00000E+00     0.00
  -90.00   355.00       1.85 -999.99    1.85    0.00000     0.00  LINEAR    5.78721E-01   157.35    0.00000E+00     0.00
  -85.00   355.00       1.81 -999.99    1.81    0.00000     0.00  LINEAR    5.75533E-01   156.40    0.00000E+00     0.00
  -80.00   355.00       1.66 -999.99    1.66    0.00000     0.00  LINEAR    5.66070E-01   153.55    0.00000E+00     0.00
  -75.00   355.00       1.42 -999.99    1.42    0.00000     0.00  LINEAR    5.50617E-01   148.82    0.00000E+00     0.00
  -70.00   355.00       1.08 -999.99    1.08    0.00000     0.00  LINEAR    5.29631E-01   142.25    0.00000E+00     0.00
  -65.00   355.00       0.65 -999.99    0.65    0.00000     0.00  LINEAR    5.03700E-01   133.89    0.00000E+00     0.00
  -60.00   355.00       0.11 -999.99    0.11    0.00000     0.00  LINEAR    4.73509E-01   123.81    0.00000E+00     0.00
  -55.00   355.00      -0.53 -999.99   -0.53    0.00000     0.00  LINEAR    4.39791E-01   112.08    0.00000E+00     0.00
  -50.00   355.00      -1.28 -999.99   -1.28    0.00000     0.00  LINEAR    4.03291E-01    98.79    0.00000E+00     0.00
  -45.00   355.00      -2.16 -999.99   -2.16    0.00000     0.00  LINEAR    3.64722E-01    84.04    0.00000E+00     0.00
  -40.00   355.00      -3.17 -999.99   -3.17    0.00000     0.00  LINEAR    3.24739E-01    67.93    0.00000E+00     0.00
  -35.00   355.00      -4.33 -999.99   -4.33    0.00000     0.00  LINEAR    2.83914E-01    50.59    0.00000E+00     0.00
  -30.00   355.00      -5.69 -999.99   -5.69    0.00000     0.00  LINEAR    2.42719E-01    32.14    0.00000E+00     0.00
  -25.00   355.00      -7.31 -999.99   -7.31    0.00000     0.00  LINEAR    2.01514E-01    12.72    0.00000E+00     0.00
  -20.00   355.00      -9.28 -999.99   -9.28    0.00000     0.00  LINEAR    1.60542E-01    -7.54    0.00000E+00     0.00
  -15.00   355.00     -11.82 -999.99  -11.82    0.00000     0.00  LINEAR    1.19932E-01   -28.48    0.00000E+00     0.00
  -10.00   355.00     -15.37 -999.99  -15.37    0.00000     0.00  LINEAR    7.97008E-02   -49.93    0.00000E+00     0.00
   -5.00   355.00     -21.40 -999.99  -21.40    0.00000     0.00  LINEAR    3.97719E-02   -71.75    0.00000E+00     0.00
    0.00   355.00    -999.99 -999.99 -999.99    0.00000     0.00            0.00000E+00     0.00    0.00000E+00     0.00
 -180.00   360.00    -999.99 -999.99 -999.99    0.00000     0.00            4.64954E-12    86.26    0.00000E+00     0.00
 -175.00   360.00     -21.40 -999.99  -21.40    0.00000     0.00  LINEAR    3.97805E-02   -93.75    0.00000E+00     0.00
 -170.00   360.00     -15.36 -999.99  -15.36    0.00000     0.00  LINEAR    7.97218E-02   -93.75    0.00000E+00     0.00
 -165.00   360.00     -11.82 -999.99  -11.82    0.00000     0.00  LINEAR    1.19958E-01   -93.76    0.00000E+00     0.00
 -160.00   360.00      -9.28 -999.99   -9.28    0.00000     0.00  LINEAR    1.60572E-01   -93.78    0.00000E+00     0.00
 -155.00   360.00      -7.31 -999.99   -7.31    0.00000     0.00  LINEAR    2.01567E-01   -93.80    0.00000E+00     0.00
 -150.00   360.00      -5.69 -999.99   -5.69    0.00000     0.00  LINEAR    2.42851E-01   -93.81    0.00000E+00     0.00
 -145.00   360.00      -4.32 -999.99   -4.32    0.00000     0.00  LINEAR    2.84219E-01   -93.84    0.00000E+00     0.00
 -140.00   360.00      -3.15 -999.99   -3.15    0.00000     0.00  LINEAR    3.25340E-01   -93.86    0.00000E+00     0.00
 -135.00   360.00      -2.13 -999.99   -2.13    0.00000     0.00  LINEAR    3.65757E-01   -93.88    0.00000E+00     0.00
 -130.00   360.00      -1.25 -999.99   -1.25    0.00000     0.00  LINEAR    4.04894E-01   -93.90    0.00000E+00     0.00
 -125.00   360.00      -0.49 -999.99   -0.49    0.00000     0.00  LINEAR    4.42071E-01   -93.93    0.00000E+00     0.00
 -120.00   360.00       0.17 -999.99    0.17    0.00000     0.00  LINEAR    4.76531E-01   -93.94    0.00000E+00     0.00
 -115.00   360.00       0.71 -999.99    0.71    0.00000     0.00  LINEAR    5.07481E-01   -93.96    0.00000E+00     0.00
 -110.00   360.00       1.16 -999.99    1.16    0.00000     0.00  LINEAR    5.34129E-01   -93.98    0.00000E+00     0.00
 -105.00   360.00       1.50 -999.99    1.50    0.00000     0.00  LINEAR    5.55737E-01   -93.99    0.00000E+00     0.00
 -100.00   360.00       1.75 -999.99    1.75    0.00000     0.00  LINEAR    5.71670E-01   -94.00    0.00000E+00     0.00
  -95.00   360.00       1.89 -999.99    1.89    0.00000     0.00  LINEAR    5.81437E-01   -94.00    0.00000E+00     0.00
  -90.00   360.00       1.94 -999.99    1.94    0.00000     0.00  LINEAR    5.84728E-01   -94.00    0.00000E+00     0.00
  -85.00   360.00       1.89 -999.99    1.89    0.00000     0.00  LINEAR    5.81437E-01   -94.00    0.00000E+00     0.00
  -80.00   360.00       1.75 -999.99    1.75    0.00000     0.00  LINEAR    5.71670E-01   -94.00    0.00000E+00     0.00
  -75.00   360.00       1.50 -999.99    1.50    0.00000     0.00  LINEAR    5.55737E-01   -93.99    0.00000E+00     0.00
  -70.00   360.00       1.16 -999.99    1.16    0.00000     0.00  LINEAR    5.34129E-01   -93.98    0.00000E+00     0.00
  -65.00   360.00       0.71 -999.99    0.71    0.00000     0.00  LINEAR    5.07481E-01   -93.96    0.00000E+00     0.00
  -60.00   360.00       0.17 -999.99    0.17    0.00000     0.00  LINEAR    4.76531E-01   -93.94    0.00000E+00     0.00
  -55.00   360.00      -0.49 -999.99   -0.49    0.00000     0.00  LINEAR    4.42071E-01   -93.93    0.00000E+00     0.00
  -50.00   360.00      -1.25 -999.99   -1.25    0.00000     0.00  LINEAR    4.04894E-01   -93.90    0.00000E+00     0.00
  -45.00   360.00      -2.13 -999.99   -2.13    0.00000     0.00  LINEAR    3.65757E-01   -93.88    0.00000E+00     0.00
  -40.00   360.00      -3.15 -999.99   -3.15    0.00000     0.00  LINEAR    3.25340E-01   -93.86    0.00000E+00     0.00
  -35.00   360.00      -4.32 -999.99   -4.32    0.00000     0.00  LINEAR    2.84219E-01   -93.84    0.00000E+00     0.00
  -30.00   360.00      -5.69 -999.99   -5.69    0.00000     0.00  LINEAR    2.42851E-01   -93.81    0.00000E+00     0.00
  -25.00   360.00      -7.31 -999.99   -7.31    0.00000     0.00  LINEAR    2.01567E-01   -93.80    0.00000E+00     0.00
  -20.00   360.00      -9.28 -999.99   -9.28    0.00000     0.00  LINEAR    1.60572E-01   -93.78    0.00000E+00     0.00
  -15.00   360.00     -11.82 -999.99  -11.82    0.00000     0.00  LINEAR    1.19958E-01   -93.76    0.00000E+00     0.00
  -10.00   360.00     -15.36 -999.99  -15.36    0.00000     0.00  LINEAR    7.97218E-02   -93.75    0.00000E+00     0.00
   -5.00   360.00     -21.40 -999.99  -21.40    0.00000     0.00  LINEAR    3.97805E-02   -93.75    0.00000E+00     0.00
    0.00   360.00    -999.99 -999.99 -999.99    0.00000     0.00            0.00000E+00     0.00    0.00000E+00     0.00


   AVERAGE POWER GAIN= 5.81539E-01       SOLID ANGLE USED IN AVERAGING=( 4.0000)*PI STERADIANS.








 ***** DATA CARD NO. 26   EN   0    37    73  1003 -1.80000E+02  0.00000E+00  5.00000E+00  5.00000E+00  0.00000E+00  0.00000E+00

 RUN TIME =     0.328
