1



                                 *********************************************

                                    NUMERICAL ELECTROMAGNETICS CODE (NEC-2D)

                                 *********************************************




                                     - - - - COMMENTS - - - -


                                                                                                     
                          forw:-999, 0 ; back: 0, 0                                                  
                                                                                                     




                                 - - - STRUCTURE SPECIFICATION - - -

                                     COORDINATES MUST BE INPUT IN
                                     METERS OR BE SCALED TO METERS
                                     BEFORE STRUCTURE INPUT IS ENDED


  WIRE                                                                               NO. OF    FIRST  LAST     TAG
  NO.        X1         Y1         Z1          X2         Y2         Z2      RADIUS   SEG.     SEG.   SEG.     NO.
     1    0.00000    0.00000   -0.17430     0.00000    0.00000    0.17430    0.00010      9        1     9       1
     2    0.00000    0.34860   -0.17430     0.00000    0.34860    0.17430    0.00010      9       10    18       2
     3    0.00000    0.69719   -0.17430     0.00000    0.69719    0.17430    0.00010      9       19    27       3
     4    0.00000    1.04579   -0.17430     0.00000    1.04579    0.17430    0.00010      9       28    36       4
     5    0.00000    1.39438   -0.17430     0.00000    1.39438    0.17430    0.00010      9       37    45       5
     6    0.00000    1.74298   -0.17430     0.00000    1.74298    0.17430    0.00010      9       46    54       6
     7    0.00000    2.09158   -0.17430     0.00000    2.09158    0.17430    0.00010      9       55    63       7
     8    0.00000    2.44017   -0.17430     0.00000    2.44017    0.17430    0.00010      9       64    72       8
     9    0.00000    2.78877   -0.17430     0.00000    2.78877    0.17430    0.00010      9       73    81       9
    10    0.00000    3.13736   -0.17430     0.00000    3.13736    0.17430    0.00010      9       82    90      10
    11    0.00000    3.48596   -0.17430     0.00000    3.48596    0.17430    0.00010      9       91    99      11
    12    0.00000    3.83455   -0.17430     0.00000    3.83455    0.17430    0.00010      9      100   108      12
    13    0.00000    4.18315   -0.17430     0.00000    4.18315    0.17430    0.00010      9      109   117      13
    14    0.00000    4.53175   -0.17430     0.00000    4.53175    0.17430    0.00010      9      118   126      14
    15    0.00000    4.88034   -0.17430     0.00000    4.88034    0.17430    0.00010      9      127   135      15
    16    0.00000    5.22894   -0.17430     0.00000    5.22894    0.17430    0.00010      9      136   144      16
    17    0.00000    5.57753   -0.17430     0.00000    5.57753    0.17430    0.00010      9      145   153      17
    18    0.00000    5.92613   -0.17430     0.00000    5.92613    0.17430    0.00010      9      154   162      18
    19    0.00000    6.27473   -0.17430     0.00000    6.27473    0.17430    0.00010      9      163   171      19
    20    0.00000    6.62332   -0.17430     0.00000    6.62332    0.17430    0.00010      9      172   180      20

   TOTAL SEGMENTS USED=  180     NO. SEG. IN A SYMMETRIC CELL=  180     SYMMETRY FLAG=  0


         - MULTIPLE WIRE JUNCTIONS -
 JUNCTION    SEGMENTS  (- FOR END 1, + FOR END 2)
  NONE




                                 - - - - SEGMENTATION DATA - - - -

                                        COORDINATES IN METERS

                         I+ AND I- INDICATE THE SEGMENTS BEFORE AND AFTER I


  SEG.   COORDINATES OF SEG. CENTER     SEG.     ORIENTATION ANGLES    WIRE    CONNECTION DATA   TAG
  NO.       X         Y         Z       LENGTH     ALPHA     BETA      RADIUS    I-   I    I+    NO.
     1   0.00000   0.00000  -0.15493   0.03873   90.00000   0.00000   0.00010     0    1    2      1
     2   0.00000   0.00000  -0.11620   0.03873   90.00000   0.00000   0.00010     1    2    3      1
     3   0.00000   0.00000  -0.07747   0.03873   90.00000   0.00000   0.00010     2    3    4      1
     4   0.00000   0.00000  -0.03873   0.03873   90.00000   0.00000   0.00010     3    4    5      1
     5   0.00000   0.00000   0.00000   0.03873   90.00000   0.00000   0.00010     4    5    6      1
     6   0.00000   0.00000   0.03873   0.03873   90.00000   0.00000   0.00010     5    6    7      1
     7   0.00000   0.00000   0.07747   0.03873   90.00000   0.00000   0.00010     6    7    8      1
     8   0.00000   0.00000   0.11620   0.03873   90.00000   0.00000   0.00010     7    8    9      1
     9   0.00000   0.00000   0.15493   0.03873   90.00000   0.00000   0.00010     8    9    0      1
    10   0.00000   0.34860  -0.15493   0.03873   90.00000   0.00000   0.00010     0   10   11      2
    11   0.00000   0.34860  -0.11620   0.03873   90.00000   0.00000   0.00010    10   11   12      2
    12   0.00000   0.34860  -0.07747   0.03873   90.00000   0.00000   0.00010    11   12   13      2
    13   0.00000   0.34860  -0.03873   0.03873   90.00000   0.00000   0.00010    12   13   14      2
    14   0.00000   0.34860   0.00000   0.03873   90.00000   0.00000   0.00010    13   14   15      2
    15   0.00000   0.34860   0.03873   0.03873   90.00000   0.00000   0.00010    14   15   16      2
    16   0.00000   0.34860   0.07747   0.03873   90.00000   0.00000   0.00010    15   16   17      2
    17   0.00000   0.34860   0.11620   0.03873   90.00000   0.00000   0.00010    16   17   18      2
    18   0.00000   0.34860   0.15493   0.03873   90.00000   0.00000   0.00010    17   18    0      2
    19   0.00000   0.69719  -0.15493   0.03873   90.00000   0.00000   0.00010     0   19   20      3
    20   0.00000   0.69719  -0.11620   0.03873   90.00000   0.00000   0.00010    19   20   21      3
    21   0.00000   0.69719  -0.07747   0.03873   90.00000   0.00000   0.00010    20   21   22      3
    22   0.00000   0.69719  -0.03873   0.03873   90.00000   0.00000   0.00010    21   22   23      3
    23   0.00000   0.69719   0.00000   0.03873   90.00000   0.00000   0.00010    22   23   24      3
    24   0.00000   0.69719   0.03873   0.03873   90.00000   0.00000   0.00010    23   24   25      3
    25   0.00000   0.69719   0.07747   0.03873   90.00000   0.00000   0.00010    24   25   26      3
    26   0.00000   0.69719   0.11620   0.03873   90.00000   0.00000   0.00010    25   26   27      3
    27   0.00000   0.69719   0.15493   0.03873   90.00000   0.00000   0.00010    26   27    0      3
    28   0.00000   1.04579  -0.15493   0.03873   90.00000   0.00000   0.00010     0   28   29      4
    29   0.00000   1.04579  -0.11620   0.03873   90.00000   0.00000   0.00010    28   29   30      4
    30   0.00000   1.04579  -0.07747   0.03873   90.00000   0.00000   0.00010    29   30   31      4
    31   0.00000   1.04579  -0.03873   0.03873   90.00000   0.00000   0.00010    30   31   32      4
    32   0.00000   1.04579   0.00000   0.03873   90.00000   0.00000   0.00010    31   32   33      4
    33   0.00000   1.04579   0.03873   0.03873   90.00000   0.00000   0.00010    32   33   34      4
    34   0.00000   1.04579   0.07747   0.03873   90.00000   0.00000   0.00010    33   34   35      4
    35   0.00000   1.04579   0.11620   0.03873   90.00000   0.00000   0.00010    34   35   36      4
    36   0.00000   1.04579   0.15493   0.03873   90.00000   0.00000   0.00010    35   36    0      4
    37   0.00000   1.39438  -0.15493   0.03873   90.00000   0.00000   0.00010     0   37   38      5
    38   0.00000   1.39438  -0.11620   0.03873   90.00000   0.00000   0.00010    37   38   39      5
    39   0.00000   1.39438  -0.07747   0.03873   90.00000   0.00000   0.00010    38   39   40      5
    40   0.00000   1.39438  -0.03873   0.03873   90.00000   0.00000   0.00010    39   40   41      5
    41   0.00000   1.39438   0.00000   0.03873   90.00000   0.00000   0.00010    40   41   42      5
    42   0.00000   1.39438   0.03873   0.03873   90.00000   0.00000   0.00010    41   42   43      5
    43   0.00000   1.39438   0.07747   0.03873   90.00000   0.00000   0.00010    42   43   44      5
    44   0.00000   1.39438   0.11620   0.03873   90.00000   0.00000   0.00010    43   44   45      5
    45   0.00000   1.39438   0.15493   0.03873   90.00000   0.00000   0.00010    44   45    0      5
    46   0.00000   1.74298  -0.15493   0.03873   90.00000   0.00000   0.00010     0   46   47      6
    47   0.00000   1.74298  -0.11620   0.03873   90.00000   0.00000   0.00010    46   47   48      6
    48   0.00000   1.74298  -0.07747   0.03873   90.00000   0.00000   0.00010    47   48   49      6
    49   0.00000   1.74298  -0.03873   0.03873   90.00000   0.00000   0.00010    48   49   50      6
    50   0.00000   1.74298   0.00000   0.03873   90.00000   0.00000   0.00010    49   50   51      6
    51   0.00000   1.74298   0.03873   0.03873   90.00000   0.00000   0.00010    50   51   52      6
    52   0.00000   1.74298   0.07747   0.03873   90.00000   0.00000   0.00010    51   52   53      6
    53   0.00000   1.74298   0.11620   0.03873   90.00000   0.00000   0.00010    52   53   54      6
    54   0.00000   1.74298   0.15493   0.03873   90.00000   0.00000   0.00010    53   54    0      6
    55   0.00000   2.09158  -0.15493   0.03873   90.00000   0.00000   0.00010     0   55   56      7
    56   0.00000   2.09158  -0.11620   0.03873   90.00000   0.00000   0.00010    55   56   57      7
    57   0.00000   2.09158  -0.07747   0.03873   90.00000   0.00000   0.00010    56   57   58      7
    58   0.00000   2.09158  -0.03873   0.03873   90.00000   0.00000   0.00010    57   58   59      7
    59   0.00000   2.09158   0.00000   0.03873   90.00000   0.00000   0.00010    58   59   60      7
    60   0.00000   2.09158   0.03873   0.03873   90.00000   0.00000   0.00010    59   60   61      7
    61   0.00000   2.09158   0.07747   0.03873   90.00000   0.00000   0.00010    60   61   62      7
    62   0.00000   2.09158   0.11620   0.03873   90.00000   0.00000   0.00010    61   62   63      7
    63   0.00000   2.09158   0.15493   0.03873   90.00000   0.00000   0.00010    62   63    0      7
    64   0.00000   2.44017  -0.15493   0.03873   90.00000   0.00000   0.00010     0   64   65      8
    65   0.00000   2.44017  -0.11620   0.03873   90.00000   0.00000   0.00010    64   65   66      8
    66   0.00000   2.44017  -0.07747   0.03873   90.00000   0.00000   0.00010    65   66   67      8
    67   0.00000   2.44017  -0.03873   0.03873   90.00000   0.00000   0.00010    66   67   68      8
    68   0.00000   2.44017   0.00000   0.03873   90.00000   0.00000   0.00010    67   68   69      8
    69   0.00000   2.44017   0.03873   0.03873   90.00000   0.00000   0.00010    68   69   70      8
    70   0.00000   2.44017   0.07747   0.03873   90.00000   0.00000   0.00010    69   70   71      8
    71   0.00000   2.44017   0.11620   0.03873   90.00000   0.00000   0.00010    70   71   72      8
    72   0.00000   2.44017   0.15493   0.03873   90.00000   0.00000   0.00010    71   72    0      8
    73   0.00000   2.78877  -0.15493   0.03873   90.00000   0.00000   0.00010     0   73   74      9
    74   0.00000   2.78877  -0.11620   0.03873   90.00000   0.00000   0.00010    73   74   75      9
    75   0.00000   2.78877  -0.07747   0.03873   90.00000   0.00000   0.00010    74   75   76      9
    76   0.00000   2.78877  -0.03873   0.03873   90.00000   0.00000   0.00010    75   76   77      9
    77   0.00000   2.78877   0.00000   0.03873   90.00000   0.00000   0.00010    76   77   78      9
    78   0.00000   2.78877   0.03873   0.03873   90.00000   0.00000   0.00010    77   78   79      9
    79   0.00000   2.78877   0.07747   0.03873   90.00000   0.00000   0.00010    78   79   80      9
    80   0.00000   2.78877   0.11620   0.03873   90.00000   0.00000   0.00010    79   80   81      9
    81   0.00000   2.78877   0.15493   0.03873   90.00000   0.00000   0.00010    80   81    0      9
    82   0.00000   3.13736  -0.15493   0.03873   90.00000   0.00000   0.00010     0   82   83     10
    83   0.00000   3.13736  -0.11620   0.03873   90.00000   0.00000   0.00010    82   83   84     10
    84   0.00000   3.13736  -0.07747   0.03873   90.00000   0.00000   0.00010    83   84   85     10
    85   0.00000   3.13736  -0.03873   0.03873   90.00000   0.00000   0.00010    84   85   86     10
    86   0.00000   3.13736   0.00000   0.03873   90.00000   0.00000   0.00010    85   86   87     10
    87   0.00000   3.13736   0.03873   0.03873   90.00000   0.00000   0.00010    86   87   88     10
    88   0.00000   3.13736   0.07747   0.03873   90.00000   0.00000   0.00010    87   88   89     10
    89   0.00000   3.13736   0.11620   0.03873   90.00000   0.00000   0.00010    88   89   90     10
    90   0.00000   3.13736   0.15493   0.03873   90.00000   0.00000   0.00010    89   90    0     10
    91   0.00000   3.48596  -0.15493   0.03873   90.00000   0.00000   0.00010     0   91   92     11
    92   0.00000   3.48596  -0.11620   0.03873   90.00000   0.00000   0.00010    91   92   93     11
    93   0.00000   3.48596  -0.07747   0.03873   90.00000   0.00000   0.00010    92   93   94     11
    94   0.00000   3.48596  -0.03873   0.03873   90.00000   0.00000   0.00010    93   94   95     11
    95   0.00000   3.48596   0.00000   0.03873   90.00000   0.00000   0.00010    94   95   96     11
    96   0.00000   3.48596   0.03873   0.03873   90.00000   0.00000   0.00010    95   96   97     11
    97   0.00000   3.48596   0.07747   0.03873   90.00000   0.00000   0.00010    96   97   98     11
    98   0.00000   3.48596   0.11620   0.03873   90.00000   0.00000   0.00010    97   98   99     11
    99   0.00000   3.48596   0.15493   0.03873   90.00000   0.00000   0.00010    98   99    0     11
   100   0.00000   3.83455  -0.15493   0.03873   90.00000   0.00000   0.00010     0  100  101     12
   101   0.00000   3.83455  -0.11620   0.03873   90.00000   0.00000   0.00010   100  101  102     12
   102   0.00000   3.83455  -0.07747   0.03873   90.00000   0.00000   0.00010   101  102  103     12
   103   0.00000   3.83455  -0.03873   0.03873   90.00000   0.00000   0.00010   102  103  104     12
   104   0.00000   3.83455   0.00000   0.03873   90.00000   0.00000   0.00010   103  104  105     12
   105   0.00000   3.83455   0.03873   0.03873   90.00000   0.00000   0.00010   104  105  106     12
   106   0.00000   3.83455   0.07747   0.03873   90.00000   0.00000   0.00010   105  106  107     12
   107   0.00000   3.83455   0.11620   0.03873   90.00000   0.00000   0.00010   106  107  108     12
   108   0.00000   3.83455   0.15493   0.03873   90.00000   0.00000   0.00010   107  108    0     12
   109   0.00000   4.18315  -0.15493   0.03873   90.00000   0.00000   0.00010     0  109  110     13
   110   0.00000   4.18315  -0.11620   0.03873   90.00000   0.00000   0.00010   109  110  111     13
   111   0.00000   4.18315  -0.07747   0.03873   90.00000   0.00000   0.00010   110  111  112     13
   112   0.00000   4.18315  -0.03873   0.03873   90.00000   0.00000   0.00010   111  112  113     13
   113   0.00000   4.18315   0.00000   0.03873   90.00000   0.00000   0.00010   112  113  114     13
   114   0.00000   4.18315   0.03873   0.03873   90.00000   0.00000   0.00010   113  114  115     13
   115   0.00000   4.18315   0.07747   0.03873   90.00000   0.00000   0.00010   114  115  116     13
   116   0.00000   4.18315   0.11620   0.03873   90.00000   0.00000   0.00010   115  116  117     13
   117   0.00000   4.18315   0.15493   0.03873   90.00000   0.00000   0.00010   116  117    0     13
   118   0.00000   4.53175  -0.15493   0.03873   90.00000   0.00000   0.00010     0  118  119     14
   119   0.00000   4.53175  -0.11620   0.03873   90.00000   0.00000   0.00010   118  119  120     14
   120   0.00000   4.53175  -0.07747   0.03873   90.00000   0.00000   0.00010   119  120  121     14
   121   0.00000   4.53175  -0.03873   0.03873   90.00000   0.00000   0.00010   120  121  122     14
   122   0.00000   4.53175   0.00000   0.03873   90.00000   0.00000   0.00010   121  122  123     14
   123   0.00000   4.53175   0.03873   0.03873   90.00000   0.00000   0.00010   122  123  124     14
   124   0.00000   4.53175   0.07747   0.03873   90.00000   0.00000   0.00010   123  124  125     14
   125   0.00000   4.53175   0.11620   0.03873   90.00000   0.00000   0.00010   124  125  126     14
   126   0.00000   4.53175   0.15493   0.03873   90.00000   0.00000   0.00010   125  126    0     14
   127   0.00000   4.88034  -0.15493   0.03873   90.00000   0.00000   0.00010     0  127  128     15
   128   0.00000   4.88034  -0.11620   0.03873   90.00000   0.00000   0.00010   127  128  129     15
   129   0.00000   4.88034  -0.07747   0.03873   90.00000   0.00000   0.00010   128  129  130     15
   130   0.00000   4.88034  -0.03873   0.03873   90.00000   0.00000   0.00010   129  130  131     15
   131   0.00000   4.88034   0.00000   0.03873   90.00000   0.00000   0.00010   130  131  132     15
   132   0.00000   4.88034   0.03873   0.03873   90.00000   0.00000   0.00010   131  132  133     15
   133   0.00000   4.88034   0.07747   0.03873   90.00000   0.00000   0.00010   132  133  134     15
   134   0.00000   4.88034   0.11620   0.03873   90.00000   0.00000   0.00010   133  134  135     15
   135   0.00000   4.88034   0.15493   0.03873   90.00000   0.00000   0.00010   134  135    0     15
   136   0.00000   5.22894  -0.15493   0.03873   90.00000   0.00000   0.00010     0  136  137     16
   137   0.00000   5.22894  -0.11620   0.03873   90.00000   0.00000   0.00010   136  137  138     16
   138   0.00000   5.22894  -0.07747   0.03873   90.00000   0.00000   0.00010   137  138  139     16
   139   0.00000   5.22894  -0.03873   0.03873   90.00000   0.00000   0.00010   138  139  140     16
   140   0.00000   5.22894   0.00000   0.03873   90.00000   0.00000   0.00010   139  140  141     16
   141   0.00000   5.22894   0.03873   0.03873   90.00000   0.00000   0.00010   140  141  142     16
   142   0.00000   5.22894   0.07747   0.03873   90.00000   0.00000   0.00010   141  142  143     16
   143   0.00000   5.22894   0.11620   0.03873   90.00000   0.00000   0.00010   142  143  144     16
   144   0.00000   5.22894   0.15493   0.03873   90.00000   0.00000   0.00010   143  144    0     16
   145   0.00000   5.57753  -0.15493   0.03873   90.00000   0.00000   0.00010     0  145  146     17
   146   0.00000   5.57753  -0.11620   0.03873   90.00000   0.00000   0.00010   145  146  147     17
   147   0.00000   5.57753  -0.07747   0.03873   90.00000   0.00000   0.00010   146  147  148     17
   148   0.00000   5.57753  -0.03873   0.03873   90.00000   0.00000   0.00010   147  148  149     17
   149   0.00000   5.57753   0.00000   0.03873   90.00000   0.00000   0.00010   148  149  150     17
   150   0.00000   5.57753   0.03873   0.03873   90.00000   0.00000   0.00010   149  150  151     17
   151   0.00000   5.57753   0.07747   0.03873   90.00000   0.00000   0.00010   150  151  152     17
   152   0.00000   5.57753   0.11620   0.03873   90.00000   0.00000   0.00010   151  152  153     17
   153   0.00000   5.57753   0.15493   0.03873   90.00000   0.00000   0.00010   152  153    0     17
   154   0.00000   5.92613  -0.15493   0.03873   90.00000   0.00000   0.00010     0  154  155     18
   155   0.00000   5.92613  -0.11620   0.03873   90.00000   0.00000   0.00010   154  155  156     18
   156   0.00000   5.92613  -0.07747   0.03873   90.00000   0.00000   0.00010   155  156  157     18
   157   0.00000   5.92613  -0.03873   0.03873   90.00000   0.00000   0.00010   156  157  158     18
   158   0.00000   5.92613   0.00000   0.03873   90.00000   0.00000   0.00010   157  158  159     18
   159   0.00000   5.92613   0.03873   0.03873   90.00000   0.00000   0.00010   158  159  160     18
   160   0.00000   5.92613   0.07747   0.03873   90.00000   0.00000   0.00010   159  160  161     18
   161   0.00000   5.92613   0.11620   0.03873   90.00000   0.00000   0.00010   160  161  162     18
   162   0.00000   5.92613   0.15493   0.03873   90.00000   0.00000   0.00010   161  162    0     18
   163   0.00000   6.27473  -0.15493   0.03873   90.00000   0.00000   0.00010     0  163  164     19
   164   0.00000   6.27473  -0.11620   0.03873   90.00000   0.00000   0.00010   163  164  165     19
   165   0.00000   6.27473  -0.07747   0.03873   90.00000   0.00000   0.00010   164  165  166     19
   166   0.00000   6.27473  -0.03873   0.03873   90.00000   0.00000   0.00010   165  166  167     19
   167   0.00000   6.27473   0.00000   0.03873   90.00000   0.00000   0.00010   166  167  168     19
   168   0.00000   6.27473   0.03873   0.03873   90.00000   0.00000   0.00010   167  168  169     19
   169   0.00000   6.27473   0.07747   0.03873   90.00000   0.00000   0.00010   168  169  170     19
   170   0.00000   6.27473   0.11620   0.03873   90.00000   0.00000   0.00010   169  170  171     19
   171   0.00000   6.27473   0.15493   0.03873   90.00000   0.00000   0.00010   170  171    0     19
   172   0.00000   6.62332  -0.15493   0.03873   90.00000   0.00000   0.00010     0  172  173     20
   173   0.00000   6.62332  -0.11620   0.03873   90.00000   0.00000   0.00010   172  173  174     20
   174   0.00000   6.62332  -0.07747   0.03873   90.00000   0.00000   0.00010   173  174  175     20
   175   0.00000   6.62332  -0.03873   0.03873   90.00000   0.00000   0.00010   174  175  176     20
   176   0.00000   6.62332   0.00000   0.03873   90.00000   0.00000   0.00010   175  176  177     20
   177   0.00000   6.62332   0.03873   0.03873   90.00000   0.00000   0.00010   176  177  178     20
   178   0.00000   6.62332   0.07747   0.03873   90.00000   0.00000   0.00010   177  178  179     20
   179   0.00000   6.62332   0.11620   0.03873   90.00000   0.00000   0.00010   178  179  180     20
   180   0.00000   6.62332   0.15493   0.03873   90.00000   0.00000   0.00010   179  180    0     20






 ***** DATA CARD NO.  1   LD   4     1     5     5  5.00000E+01  0.00000E+00  0.00000E+00  0.00000E+00  0.00000E+00  0.00000E+00
 ***** DATA CARD NO.  2   LD   4     2     5     5  5.00000E+01  0.00000E+00  0.00000E+00  0.00000E+00  0.00000E+00  0.00000E+00
 ***** DATA CARD NO.  3   LD   4     3     5     5  5.00000E+01  0.00000E+00  0.00000E+00  0.00000E+00  0.00000E+00  0.00000E+00
 ***** DATA CARD NO.  4   LD   4     4     5     5  5.00000E+01  0.00000E+00  0.00000E+00  0.00000E+00  0.00000E+00  0.00000E+00
 ***** DATA CARD NO.  5   LD   4     5     5     5  5.00000E+01  0.00000E+00  0.00000E+00  0.00000E+00  0.00000E+00  0.00000E+00
 ***** DATA CARD NO.  6   LD   4     6     5     5  5.00000E+01  0.00000E+00  0.00000E+00  0.00000E+00  0.00000E+00  0.00000E+00
 ***** DATA CARD NO.  7   LD   4     7     5     5  5.00000E+01  0.00000E+00  0.00000E+00  0.00000E+00  0.00000E+00  0.00000E+00
 ***** DATA CARD NO.  8   LD   4     8     5     5  5.00000E+01  0.00000E+00  0.00000E+00  0.00000E+00  0.00000E+00  0.00000E+00
 ***** DATA CARD NO.  9   LD   4     9     5     5  5.00000E+01  0.00000E+00  0.00000E+00  0.00000E+00  0.00000E+00  0.00000E+00
 ***** DATA CARD NO. 10   LD   4    10     5     5  5.00000E+01  0.00000E+00  0.00000E+00  0.00000E+00  0.00000E+00  0.00000E+00
 ***** DATA CARD NO. 11   LD   4    11     5     5  5.00000E+01  0.00000E+00  0.00000E+00  0.00000E+00  0.00000E+00  0.00000E+00
 ***** DATA CARD NO. 12   LD   4    12     5     5  5.00000E+01  0.00000E+00  0.00000E+00  0.00000E+00  0.00000E+00  0.00000E+00
 ***** DATA CARD NO. 13   LD   4    13     5     5  5.00000E+01  0.00000E+00  0.00000E+00  0.00000E+00  0.00000E+00  0.00000E+00
 ***** DATA CARD NO. 14   LD   4    14     5     5  5.00000E+01  0.00000E+00  0.00000E+00  0.00000E+00  0.00000E+00  0.00000E+00
 ***** DATA CARD NO. 15   LD   4    15     5     5  5.00000E+01  0.00000E+00  0.00000E+00  0.00000E+00  0.00000E+00  0.00000E+00
 ***** DATA CARD NO. 16   LD   4    16     5     5  5.00000E+01  0.00000E+00  0.00000E+00  0.00000E+00  0.00000E+00  0.00000E+00
 ***** DATA CARD NO. 17   LD   4    17     5     5  5.00000E+01  0.00000E+00  0.00000E+00  0.00000E+00  0.00000E+00  0.00000E+00
 ***** DATA CARD NO. 18   LD   4    18     5     5  5.00000E+01  0.00000E+00  0.00000E+00  0.00000E+00  0.00000E+00  0.00000E+00
 ***** DATA CARD NO. 19   LD   4    19     5     5  5.00000E+01  0.00000E+00  0.00000E+00  0.00000E+00  0.00000E+00  0.00000E+00
 ***** DATA CARD NO. 20   LD   4    20     5     5  5.00000E+01  0.00000E+00  0.00000E+00  0.00000E+00  0.00000E+00  0.00000E+00
 ***** DATA CARD NO. 21   GN  -1     0     0     0  0.00000E+00  0.00000E+00  0.00000E+00  0.00000E+00  0.00000E+00  0.00000E+00
 ***** DATA CARD NO. 22   EK   0     0     0     0  0.00000E+00  0.00000E+00  0.00000E+00  0.00000E+00  0.00000E+00  0.00000E+00
 ***** DATA CARD NO. 23   EX   0    20     5     0  1.00000E+00  0.00000E+00  0.00000E+00  0.00000E+00  0.00000E+00  0.00000E+00
 ***** DATA CARD NO. 24   FR   0     0     0     0  4.30000E+02  0.00000E+00  0.00000E+00  0.00000E+00  0.00000E+00  0.00000E+00
 ***** DATA CARD NO. 25   RP   0    37    73  1003 -1.80000E+02  0.00000E+00  5.00000E+00  5.00000E+00  0.00000E+00  0.00000E+00




                                 - - - - - - FREQUENCY - - - - - -

                                    FREQUENCY= 4.3000E+02 MHZ
                                    WAVELENGTH= 6.9721E-01 METERS




                    APPROXIMATE INTEGRATION EMPLOYED FOR SEGMENTS MORE THAN   1.000 WAVELENGTHS APART

                    THE EXTENDED THIN WIRE KERNEL WILL BE USED



                               - - - STRUCTURE IMPEDANCE LOADING - - -


       LOCATION          RESISTANCE   INDUCTANCE  CAPACITANCE       IMPEDANCE (OHMS)     CONDUCTIVITY    TYPE
    ITAG FROM THRU          OHMS        HENRYS       FARADS        REAL      IMAGINARY    MHOS/METER

       1    5    5                                             5.0000E+01                             FIXED IMPEDANCE 

       2    5    5                                             5.0000E+01                             FIXED IMPEDANCE 

       3    5    5                                             5.0000E+01                             FIXED IMPEDANCE 

       4    5    5                                             5.0000E+01                             FIXED IMPEDANCE 

       5    5    5                                             5.0000E+01                             FIXED IMPEDANCE 

       6    5    5                                             5.0000E+01                             FIXED IMPEDANCE 

       7    5    5                                             5.0000E+01                             FIXED IMPEDANCE 

       8    5    5                                             5.0000E+01                             FIXED IMPEDANCE 

       9    5    5                                             5.0000E+01                             FIXED IMPEDANCE 

      10    5    5                                             5.0000E+01                             FIXED IMPEDANCE 

      11    5    5                                             5.0000E+01                             FIXED IMPEDANCE 

      12    5    5                                             5.0000E+01                             FIXED IMPEDANCE 

      13    5    5                                             5.0000E+01                             FIXED IMPEDANCE 

      14    5    5                                             5.0000E+01                             FIXED IMPEDANCE 

      15    5    5                                             5.0000E+01                             FIXED IMPEDANCE 

      16    5    5                                             5.0000E+01                             FIXED IMPEDANCE 

      17    5    5                                             5.0000E+01                             FIXED IMPEDANCE 

      18    5    5                                             5.0000E+01                             FIXED IMPEDANCE 

      19    5    5                                             5.0000E+01                             FIXED IMPEDANCE 

      20    5    5                                             5.0000E+01                             FIXED IMPEDANCE 



                                  - - - ANTENNA ENVIRONMENT - - -

                                            FREE SPACE



                                - - - MATRIX TIMING - - -

                        FILL=    0.031 SEC.,  FACTOR=    0.016 SEC.



                                          - - - ANTENNA INPUT PARAMETERS - - -

   TAG   SEG.    VOLTAGE (VOLTS)         CURRENT (AMPS)         IMPEDANCE (OHMS)        ADMITTANCE (MHOS)      POWER
   NO.   NO.    REAL        IMAG.       REAL        IMAG.       REAL        IMAG.       REAL        IMAG.     (WATTS)
    20   176 1.00000E+00 0.00000E+00 7.09986E-03-1.82251E-03 1.32141E+02 3.39201E+01 7.09986E-03-1.82251E-03 3.54993E-03



                             - - - CURRENTS AND LOCATION - - -

                                 DISTANCES IN WAVELENGTHS


  SEG.  TAG    COORD. OF SEG. CENTER     SEG.            - - - CURRENT (AMPS) - - -
  NO.   NO.     X        Y        Z      LENGTH     REAL        IMAG.       MAG.        PHASE
     1    1   0.0000   0.0000  -0.2222  0.05555   8.1657E-06  1.1370E-06  8.2444E-06    7.927
     2    1   0.0000   0.0000  -0.1667  0.05555   2.2071E-05  2.7715E-06  2.2245E-05    7.157
     3    1   0.0000   0.0000  -0.1111  0.05555   3.2959E-05  3.6670E-06  3.3163E-05    6.349
     4    1   0.0000   0.0000  -0.0556  0.05555   4.0015E-05  3.7848E-06  4.0194E-05    5.403
     5    1   0.0000   0.0000   0.0000  0.05555   4.2492E-05  3.3385E-06  4.2623E-05    4.492
     6    1   0.0000   0.0000   0.0556  0.05555   4.0015E-05  3.7848E-06  4.0194E-05    5.403
     7    1   0.0000   0.0000   0.1111  0.05555   3.2959E-05  3.6670E-06  3.3163E-05    6.349
     8    1   0.0000   0.0000   0.1667  0.05555   2.2071E-05  2.7715E-06  2.2245E-05    7.157
     9    1   0.0000   0.0000   0.2222  0.05555   8.1657E-06  1.1370E-06  8.2444E-06    7.927
    10    2   0.0000   0.5000  -0.2222  0.05555  -7.5274E-06  1.8181E-07  7.5296E-06  178.616
    11    2   0.0000   0.5000  -0.1667  0.05555  -2.0330E-05  7.5543E-07  2.0344E-05  177.872
    12    2   0.0000   0.5000  -0.1111  0.05555  -3.0319E-05  1.5457E-06  3.0359E-05  177.082
    13    2   0.0000   0.5000  -0.0556  0.05555  -3.6732E-05  2.4736E-06  3.6815E-05  176.147
    14    2   0.0000   0.5000   0.0000  0.05555  -3.8913E-05  3.2400E-06  3.9048E-05  175.240
    15    2   0.0000   0.5000   0.0556  0.05555  -3.6732E-05  2.4736E-06  3.6815E-05  176.147
    16    2   0.0000   0.5000   0.1111  0.05555  -3.0319E-05  1.5457E-06  3.0359E-05  177.082
    17    2   0.0000   0.5000   0.1667  0.05555  -2.0330E-05  7.5543E-07  2.0344E-05  177.872
    18    2   0.0000   0.5000   0.2222  0.05555  -7.5274E-06  1.8181E-07  7.5296E-06  178.616
    19    3   0.0000   1.0000  -0.2222  0.05555   7.5435E-06 -5.8086E-07  7.5658E-06   -4.403
    20    3   0.0000   1.0000  -0.1667  0.05555   2.0364E-05 -1.8290E-06  2.0446E-05   -5.132
    21    3   0.0000   1.0000  -0.1111  0.05555   3.0351E-05 -3.1432E-06  3.0514E-05   -5.913
    22    3   0.0000   1.0000  -0.0556  0.05555   3.6742E-05 -4.4077E-06  3.7005E-05   -6.841
    23    3   0.0000   1.0000   0.0000  0.05555   3.8891E-05 -5.2901E-06  3.9250E-05   -7.746
    24    3   0.0000   1.0000   0.0556  0.05555   3.6742E-05 -4.4077E-06  3.7005E-05   -6.841
    25    3   0.0000   1.0000   0.1111  0.05555   3.0351E-05 -3.1432E-06  3.0514E-05   -5.913
    26    3   0.0000   1.0000   0.1667  0.05555   2.0364E-05 -1.8290E-06  2.0446E-05   -5.132
    27    3   0.0000   1.0000   0.2222  0.05555   7.5435E-06 -5.8086E-07  7.5658E-06   -4.403
    28    4   0.0000   1.5000  -0.2222  0.05555  -7.8059E-06  7.8334E-07  7.8451E-06  174.269
    29    4   0.0000   1.5000  -0.1667  0.05555  -2.1067E-05  2.3834E-06  2.1201E-05  173.545
    30    4   0.0000   1.5000  -0.1111  0.05555  -3.1390E-05  3.9830E-06  3.1641E-05  172.769
    31    4   0.0000   1.5000  -0.0556  0.05555  -3.7985E-05  5.4452E-06  3.8373E-05  171.842
    32    4   0.0000   1.5000   0.0000  0.05555  -4.0193E-05  6.4108E-06  4.0701E-05  170.938
    33    4   0.0000   1.5000   0.0556  0.05555  -3.7985E-05  5.4452E-06  3.8373E-05  171.842
    34    4   0.0000   1.5000   0.1111  0.05555  -3.1390E-05  3.9830E-06  3.1641E-05  172.769
    35    4   0.0000   1.5000   0.1667  0.05555  -2.1067E-05  2.3834E-06  2.1201E-05  173.545
    36    4   0.0000   1.5000   0.2222  0.05555  -7.8059E-06  7.8334E-07  7.8451E-06  174.269
    37    5   0.0000   2.0000  -0.2222  0.05555   8.2344E-06 -9.1432E-07  8.2850E-06   -6.336
    38    5   0.0000   2.0000  -0.1667  0.05555   2.2220E-05 -2.7514E-06  2.2390E-05   -7.059
    39    5   0.0000   2.0000  -0.1111  0.05555   3.3103E-05 -4.5550E-06  3.3415E-05   -7.835
    40    5   0.0000   2.0000  -0.0556  0.05555   4.0051E-05 -6.1721E-06  4.0524E-05   -8.761
    41    5   0.0000   2.0000   0.0000  0.05555   4.2372E-05 -7.2161E-06  4.2982E-05   -9.665
    42    5   0.0000   2.0000   0.0556  0.05555   4.0051E-05 -6.1721E-06  4.0524E-05   -8.761
    43    5   0.0000   2.0000   0.1111  0.05555   3.3103E-05 -4.5550E-06  3.3415E-05   -7.835
    44    5   0.0000   2.0000   0.1667  0.05555   2.2220E-05 -2.7514E-06  2.2390E-05   -7.059
    45    5   0.0000   2.0000   0.2222  0.05555   8.2344E-06 -9.1432E-07  8.2850E-06   -6.336
    46    6   0.0000   2.4999  -0.2222  0.05555  -8.8122E-06  1.0106E-06  8.8700E-06  173.458
    47    6   0.0000   2.4999  -0.1667  0.05555  -2.3778E-05  3.0315E-06  2.3970E-05  172.734
    48    6   0.0000   2.4999  -0.1111  0.05555  -3.5421E-05  5.0044E-06  3.5773E-05  171.958
    49    6   0.0000   2.4999  -0.0556  0.05555  -4.2852E-05  6.7625E-06  4.3383E-05  171.032
    50    6   0.0000   2.4999   0.0000  0.05555  -4.5333E-05  7.8892E-06  4.6014E-05  170.128
    51    6   0.0000   2.4999   0.0556  0.05555  -4.2852E-05  6.7625E-06  4.3383E-05  171.032
    52    6   0.0000   2.4999   0.1111  0.05555  -3.5421E-05  5.0044E-06  3.5773E-05  171.958
    53    6   0.0000   2.4999   0.1667  0.05555  -2.3778E-05  3.0315E-06  2.3970E-05  172.734
    54    6   0.0000   2.4999   0.2222  0.05555  -8.8122E-06  1.0106E-06  8.8700E-06  173.458
    55    7   0.0000   2.9999  -0.2222  0.05555   9.5487E-06 -1.0850E-06  9.6101E-06   -6.483
    56    7   0.0000   2.9999  -0.1667  0.05555   2.5764E-05 -3.2581E-06  2.5969E-05   -7.207
    57    7   0.0000   2.9999  -0.1111  0.05555   3.8379E-05 -5.3834E-06  3.8755E-05   -7.985
    58    7   0.0000   2.9999  -0.0556  0.05555   4.6431E-05 -7.2805E-06  4.6998E-05   -8.912
    59    7   0.0000   2.9999   0.0000  0.05555   4.9119E-05 -8.4986E-06  4.9849E-05   -9.816
    60    7   0.0000   2.9999   0.0556  0.05555   4.6431E-05 -7.2805E-06  4.6998E-05   -8.912
    61    7   0.0000   2.9999   0.1111  0.05555   3.8379E-05 -5.3834E-06  3.8755E-05   -7.985
    62    7   0.0000   2.9999   0.1667  0.05555   2.5764E-05 -3.2581E-06  2.5969E-05   -7.207
    63    7   0.0000   2.9999   0.2222  0.05555   9.5487E-06 -1.0850E-06  9.6101E-06   -6.483
    64    8   0.0000   3.4999  -0.2222  0.05555  -1.0472E-05  1.1412E-06  1.0534E-05  173.780
    65    8   0.0000   3.4999  -0.1667  0.05555  -2.8254E-05  3.4426E-06  2.8463E-05  173.053
    66    8   0.0000   3.4999  -0.1111  0.05555  -4.2089E-05  5.7101E-06  4.2475E-05  172.274
    67    8   0.0000   3.4999  -0.0556  0.05555  -5.0922E-05  7.7501E-06  5.1509E-05  171.346
    68    8   0.0000   3.4999   0.0000  0.05555  -5.3874E-05  9.0720E-06  5.4632E-05  170.441
    69    8   0.0000   3.4999   0.0556  0.05555  -5.0922E-05  7.7501E-06  5.1509E-05  171.346
    70    8   0.0000   3.4999   0.1111  0.05555  -4.2089E-05  5.7101E-06  4.2475E-05  172.274
    71    8   0.0000   3.4999   0.1667  0.05555  -2.8254E-05  3.4426E-06  2.8463E-05  173.053
    72    8   0.0000   3.4999   0.2222  0.05555  -1.0472E-05  1.1412E-06  1.0534E-05  173.780
    73    9   0.0000   3.9999  -0.2222  0.05555   1.1628E-05 -1.1770E-06  1.1687E-05   -5.780
    74    9   0.0000   3.9999  -0.1667  0.05555   3.1375E-05 -3.5804E-06  3.1578E-05   -6.510
    75    9   0.0000   3.9999  -0.1111  0.05555   4.6741E-05 -5.9805E-06  4.7122E-05   -7.291
    76    9   0.0000   3.9999  -0.0556  0.05555   5.6556E-05 -8.1703E-06  5.7143E-05   -8.220
    77    9   0.0000   3.9999   0.0000  0.05555   5.9840E-05 -9.6124E-06  6.0607E-05   -9.126
    78    9   0.0000   3.9999   0.0556  0.05555   5.6556E-05 -8.1703E-06  5.7143E-05   -8.220
    79    9   0.0000   3.9999   0.1111  0.05555   4.6741E-05 -5.9805E-06  4.7122E-05   -7.291
    80    9   0.0000   3.9999   0.1667  0.05555   3.1375E-05 -3.5804E-06  3.1578E-05   -6.510
    81    9   0.0000   3.9999   0.2222  0.05555   1.1628E-05 -1.1770E-06  1.1687E-05   -5.780
    82   10   0.0000   4.4999  -0.2222  0.05555  -1.3091E-05  1.1841E-06  1.3144E-05  174.832
    83   10   0.0000   4.4999  -0.1667  0.05555  -3.5323E-05  3.6519E-06  3.5511E-05  174.097
    84   10   0.0000   4.4999  -0.1111  0.05555  -5.2626E-05  6.1694E-06  5.2987E-05  173.314
    85   10   0.0000   4.4999  -0.0556  0.05555  -6.3686E-05  8.5164E-06  6.4253E-05  172.383
    86   10   0.0000   4.4999   0.0000  0.05555  -6.7395E-05  1.0099E-05  6.8148E-05  171.477
    87   10   0.0000   4.4999   0.0556  0.05555  -6.3686E-05  8.5164E-06  6.4253E-05  172.383
    88   10   0.0000   4.4999   0.1111  0.05555  -5.2626E-05  6.1694E-06  5.2987E-05  173.314
    89   10   0.0000   4.4999   0.1667  0.05555  -3.5323E-05  3.6519E-06  3.5511E-05  174.097
    90   10   0.0000   4.4999   0.2222  0.05555  -1.3091E-05  1.1841E-06  1.3144E-05  174.832
    91   11   0.0000   4.9999  -0.2222  0.05555   1.4971E-05 -1.1450E-06  1.5015E-05   -4.374
    92   11   0.0000   4.9999  -0.1667  0.05555   4.0400E-05 -3.6144E-06  4.0561E-05   -5.112
    93   11   0.0000   4.9999  -0.1111  0.05555   6.0198E-05 -6.2199E-06  6.0518E-05   -5.899
    94   11   0.0000   4.9999  -0.0556  0.05555   7.2862E-05 -8.7286E-06  7.3383E-05   -6.831
    95   11   0.0000   4.9999   0.0000  0.05555   7.7122E-05 -1.0479E-05  7.7830E-05   -7.738
    96   11   0.0000   4.9999   0.0556  0.05555   7.2862E-05 -8.7286E-06  7.3383E-05   -6.831
    97   11   0.0000   4.9999   0.1111  0.05555   6.0198E-05 -6.2199E-06  6.0518E-05   -5.899
    98   11   0.0000   4.9999   0.1667  0.05555   4.0400E-05 -3.6144E-06  4.0561E-05   -5.112
    99   11   0.0000   4.9999   0.2222  0.05555   1.4971E-05 -1.1450E-06  1.5015E-05   -4.374
   100   12   0.0000   5.4999  -0.2222  0.05555  -1.7447E-05  1.0264E-06  1.7477E-05  176.633
   101   12   0.0000   5.4999  -0.1667  0.05555  -4.7085E-05  3.3840E-06  4.7206E-05  175.889
   102   12   0.0000   5.4999  -0.1111  0.05555  -7.0169E-05  6.0171E-06  7.0427E-05  175.099
   103   12   0.0000   5.4999  -0.0556  0.05555  -8.4951E-05  8.6821E-06  8.5394E-05  174.165
   104   12   0.0000   5.4999   0.0000  0.05555  -8.9941E-05  1.0633E-05  9.0568E-05  173.257
   105   12   0.0000   5.4999   0.0556  0.05555  -8.4951E-05  8.6821E-06  8.5394E-05  174.165
   106   12   0.0000   5.4999   0.1111  0.05555  -7.0169E-05  6.0171E-06  7.0427E-05  175.099
   107   12   0.0000   5.4999   0.1667  0.05555  -4.7085E-05  3.3840E-06  4.7206E-05  175.889
   108   12   0.0000   5.4999   0.2222  0.05555  -1.7447E-05  1.0264E-06  1.7477E-05  176.633
   109   13   0.0000   5.9998  -0.2222  0.05555   2.0811E-05 -7.6153E-07  2.0825E-05   -2.096
   110   13   0.0000   5.9998  -0.1667  0.05555   5.6169E-05 -2.7926E-06  5.6238E-05   -2.846
   111   13   0.0000   5.9998  -0.1111  0.05555   8.3723E-05 -5.3275E-06  8.3893E-05   -3.641
   112   13   0.0000   5.9998  -0.0556  0.05555   1.0139E-04 -8.1180E-06  1.0171E-04   -4.578
   113   13   0.0000   5.9998   0.0000  0.05555   1.0738E-04 -1.0313E-05  1.0788E-04   -5.486
   114   13   0.0000   5.9998   0.0556  0.05555   1.0139E-04 -8.1180E-06  1.0171E-04   -4.578
   115   13   0.0000   5.9998   0.1111  0.05555   8.3723E-05 -5.3275E-06  8.3893E-05   -3.641
   116   13   0.0000   5.9998   0.1667  0.05555   5.6169E-05 -2.7926E-06  5.6238E-05   -2.846
   117   13   0.0000   5.9998   0.2222  0.05555   2.0811E-05 -7.6153E-07  2.0825E-05   -2.096
   118   14   0.0000   6.4998  -0.2222  0.05555  -2.5577E-05  2.1152E-07  2.5578E-05  179.526
   119   14   0.0000   6.4998  -0.1667  0.05555  -6.9043E-05  1.4849E-06  6.9059E-05  178.768
   120   14   0.0000   6.4998  -0.1111  0.05555  -1.0294E-04  3.6523E-06  1.0300E-04  177.968
   121   14   0.0000   6.4998  -0.0556  0.05555  -1.2471E-04  6.4742E-06  1.2487E-04  177.028
   122   14   0.0000   6.4998   0.0000  0.05555  -1.3213E-04  8.9634E-06  1.3243E-04  176.119
   123   14   0.0000   6.4998   0.0556  0.05555  -1.2471E-04  6.4742E-06  1.2487E-04  177.028
   124   14   0.0000   6.4998   0.1111  0.05555  -1.0294E-04  3.6523E-06  1.0300E-04  177.968
   125   14   0.0000   6.4998   0.1667  0.05555  -6.9043E-05  1.4849E-06  6.9059E-05  178.768
   126   14   0.0000   6.4998   0.2222  0.05555  -2.5577E-05  2.1152E-07  2.5578E-05  179.526
   127   15   0.0000   6.9998  -0.2222  0.05555   3.2724E-05  9.4390E-07  3.2738E-05    1.652
   128   15   0.0000   6.9998  -0.1667  0.05555   8.8351E-05  1.3644E-06  8.8361E-05    0.885
   129   15   0.0000   6.9998  -0.1111  0.05555   1.3176E-04  1.8020E-07  1.3176E-04    0.078
   130   15   0.0000   6.9998  -0.0556  0.05555   1.5971E-04 -2.4120E-06  1.5973E-04   -0.865
   131   15   0.0000   6.9998   0.0000  0.05555   1.6931E-04 -5.2482E-06  1.6939E-04   -1.775
   132   15   0.0000   6.9998   0.0556  0.05555   1.5971E-04 -2.4120E-06  1.5973E-04   -0.865
   133   15   0.0000   6.9998   0.1111  0.05555   1.3176E-04  1.8020E-07  1.3176E-04    0.078
   134   15   0.0000   6.9998   0.1667  0.05555   8.8351E-05  1.3644E-06  8.8361E-05    0.885
   135   15   0.0000   6.9998   0.2222  0.05555   3.2724E-05  9.4390E-07  3.2738E-05    1.652
   136   16   0.0000   7.4998  -0.2222  0.05555  -4.4332E-05 -3.5370E-06  4.4473E-05 -175.438
   137   16   0.0000   7.4998  -0.1667  0.05555  -1.1972E-04 -7.9166E-06  1.1998E-04 -176.217
   138   16   0.0000   7.4998  -0.1111  0.05555  -1.7862E-04 -9.2647E-06  1.7886E-04 -177.031
   139   16   0.0000   7.4998  -0.0556  0.05555  -2.1664E-04 -7.6447E-06  2.1678E-04 -177.979
   140   16   0.0000   7.4998   0.0000  0.05555  -2.2984E-04 -4.4499E-06  2.2988E-04 -178.891
   141   16   0.0000   7.4998   0.0556  0.05555  -2.1664E-04 -7.6447E-06  2.1678E-04 -177.979
   142   16   0.0000   7.4998   0.1111  0.05555  -1.7862E-04 -9.2647E-06  1.7886E-04 -177.031
   143   16   0.0000   7.4998   0.1667  0.05555  -1.1972E-04 -7.9166E-06  1.1998E-04 -176.217
   144   16   0.0000   7.4998   0.2222  0.05555  -4.4332E-05 -3.5370E-06  4.4473E-05 -175.438
   145   17   0.0000   7.9998  -0.2222  0.05555   6.5572E-05  1.0190E-05  6.6359E-05    8.833
   146   17   0.0000   7.9998  -0.1667  0.05555   1.7713E-04  2.5028E-05  1.7889E-04    8.043
   147   17   0.0000   7.9998  -0.1111  0.05555   2.6443E-04  3.3499E-05  2.6654E-04    7.220
   148   17   0.0000   7.9998  -0.0556  0.05555   3.2103E-04  3.5251E-05  3.2296E-04    6.266
   149   17   0.0000   7.9998   0.0000  0.05555   3.4096E-04  3.1945E-05  3.4245E-04    5.352
   150   17   0.0000   7.9998   0.0556  0.05555   3.2103E-04  3.5251E-05  3.2296E-04    6.266
   151   17   0.0000   7.9998   0.1111  0.05555   2.6443E-04  3.3499E-05  2.6654E-04    7.220
   152   17   0.0000   7.9998   0.1667  0.05555   1.7713E-04  2.5028E-05  1.7889E-04    8.043
   153   17   0.0000   7.9998   0.2222  0.05555   6.5572E-05  1.0190E-05  6.6359E-05    8.833
   154   18   0.0000   8.4998  -0.2222  0.05555  -1.1316E-04 -3.2106E-05  1.1762E-04 -164.160
   155   18   0.0000   8.4998  -0.1667  0.05555  -3.0574E-04 -8.2213E-05  3.1660E-04 -164.949
   156   18   0.0000   8.4998  -0.1111  0.05555  -4.5682E-04 -1.1581E-04  4.7127E-04 -165.775
   157   18   0.0000   8.4998  -0.0556  0.05555  -5.5547E-04 -1.3098E-04  5.7070E-04 -166.731
   158   18   0.0000   8.4998   0.0000  0.05555  -5.9103E-04 -1.2944E-04  6.0504E-04 -167.646
   159   18   0.0000   8.4998   0.0556  0.05555  -5.5547E-04 -1.3098E-04  5.7070E-04 -166.731
   160   18   0.0000   8.4998   0.1111  0.05555  -4.5682E-04 -1.1581E-04  4.7127E-04 -165.775
   161   18   0.0000   8.4998   0.1667  0.05555  -3.0574E-04 -8.2213E-05  3.1660E-04 -164.949
   162   18   0.0000   8.4998   0.2222  0.05555  -1.1316E-04 -3.2106E-05  1.1762E-04 -164.160
   163   19   0.0000   8.9998  -0.2222  0.05555   2.8609E-04  1.5038E-04  3.2321E-04   27.728
   164   19   0.0000   8.9998  -0.1667  0.05555   7.7202E-04  3.9596E-04  8.6764E-04   27.153
   165   19   0.0000   8.9998  -0.1111  0.05555   1.1538E-03  5.7459E-04  1.2890E-03   26.473
   166   19   0.0000   8.9998  -0.0556  0.05555   1.4060E-03  6.7363E-04  1.5590E-03   25.600
   167   19   0.0000   8.9998   0.0000  0.05555   1.5009E-03  6.9068E-04  1.6522E-03   24.712
   168   19   0.0000   8.9998   0.0556  0.05555   1.4060E-03  6.7363E-04  1.5590E-03   25.600
   169   19   0.0000   8.9998   0.1111  0.05555   1.1538E-03  5.7459E-04  1.2890E-03   26.473
   170   19   0.0000   8.9998   0.1667  0.05555   7.7202E-04  3.9596E-04  8.6764E-04   27.153
   171   19   0.0000   8.9998   0.2222  0.05555   2.8609E-04  1.5038E-04  3.2321E-04   27.728
   172   20   0.0000   9.4998  -0.2222  0.05555   1.3977E-03 -4.8506E-04  1.4795E-03  -19.139
   173   20   0.0000   9.4998  -0.1667  0.05555   3.7540E-03 -1.2394E-03  3.9533E-03  -18.271
   174   20   0.0000   9.4998  -0.1111  0.05555   5.5725E-03 -1.7272E-03  5.8340E-03  -17.221
   175   20   0.0000   9.4998  -0.0556  0.05555   6.7232E-03 -1.9073E-03  6.9885E-03  -15.838
   176   20   0.0000   9.4998   0.0000  0.05555   7.0999E-03 -1.8225E-03  7.3300E-03  -14.397
   177   20   0.0000   9.4998   0.0556  0.05555   6.7232E-03 -1.9073E-03  6.9885E-03  -15.838
   178   20   0.0000   9.4998   0.1111  0.05555   5.5725E-03 -1.7272E-03  5.8340E-03  -17.221
   179   20   0.0000   9.4998   0.1667  0.05555   3.7540E-03 -1.2394E-03  3.9533E-03  -18.271
   180   20   0.0000   9.4998   0.2222  0.05555   1.3977E-03 -4.8506E-04  1.4795E-03  -19.139



                                        - - - POWER BUDGET - - -

                                           INPUT POWER   = 3.5499E-03 WATTS
                                           RADIATED POWER= 2.1226E-03 WATTS
                                           STRUCTURE LOSS= 1.4273E-03 WATTS
                                           NETWORK LOSS  = 0.0000E+00 WATTS
                                           EFFICIENCY    =  59.79 PERCENT



                                                - - - RADIATION PATTERNS - - -

  - - ANGLES - -           - POWER GAINS -       - - - POLARIZATION - - -    - - - E(THETA) - - -    - - - E(PHI) - - -
  THETA     PHI        VERT.   HOR.    TOTAL      AXIAL     TILT   SENSE     MAGNITUDE    PHASE      MAGNITUDE    PHASE 
 DEGREES  DEGREES       DB      DB      DB        RATIO     DEG.              VOLTS/M    DEGREES      VOLTS/M    DEGREES
 -180.00     0.00    -999.99 -999.99 -999.99    0.00000     0.00            4.08476E-12    79.97    0.00000E+00     0.00
 -175.00     0.00     -22.41 -999.99  -22.41    0.00000     0.00  LINEAR    3.49486E-02  -100.03    0.00000E+00     0.00
 -170.00     0.00     -16.37 -999.99  -16.37    0.00000     0.00  LINEAR    7.00405E-02  -100.04    0.00000E+00     0.00
 -165.00     0.00     -12.82 -999.99  -12.82    0.00000     0.00  LINEAR    1.05395E-01  -100.06    0.00000E+00     0.00
 -160.00     0.00     -10.29 -999.99  -10.29    0.00000     0.00  LINEAR    1.41087E-01  -100.07    0.00000E+00     0.00
 -155.00     0.00      -8.32 -999.99   -8.32    0.00000     0.00  LINEAR    1.77120E-01  -100.10    0.00000E+00     0.00
 -150.00     0.00      -6.70 -999.99   -6.70    0.00000     0.00  LINEAR    2.13415E-01  -100.12    0.00000E+00     0.00
 -145.00     0.00      -5.33 -999.99   -5.33    0.00000     0.00  LINEAR    2.49791E-01  -100.15    0.00000E+00     0.00
 -140.00     0.00      -4.15 -999.99   -4.15    0.00000     0.00  LINEAR    2.85958E-01  -100.18    0.00000E+00     0.00
 -135.00     0.00      -3.14 -999.99   -3.14    0.00000     0.00  LINEAR    3.21513E-01  -100.20    0.00000E+00     0.00
 -130.00     0.00      -2.25 -999.99   -2.25    0.00000     0.00  LINEAR    3.55948E-01  -100.23    0.00000E+00     0.00
 -125.00     0.00      -1.49 -999.99   -1.49    0.00000     0.00  LINEAR    3.88665E-01  -100.26    0.00000E+00     0.00
 -120.00     0.00      -0.84 -999.99   -0.84    0.00000     0.00  LINEAR    4.18996E-01  -100.28    0.00000E+00     0.00
 -115.00     0.00      -0.29 -999.99   -0.29    0.00000     0.00  LINEAR    4.46241E-01  -100.30    0.00000E+00     0.00
 -110.00     0.00       0.16 -999.99    0.16    0.00000     0.00  LINEAR    4.69701E-01  -100.32    0.00000E+00     0.00
 -105.00     0.00       0.50 -999.99    0.50    0.00000     0.00  LINEAR    4.88727E-01  -100.34    0.00000E+00     0.00
 -100.00     0.00       0.75 -999.99    0.75    0.00000     0.00  LINEAR    5.02757E-01  -100.35    0.00000E+00     0.00
  -95.00     0.00       0.89 -999.99    0.89    0.00000     0.00  LINEAR    5.11358E-01  -100.35    0.00000E+00     0.00
  -90.00     0.00       0.94 -999.99    0.94    0.00000     0.00  LINEAR    5.14256E-01  -100.36    0.00000E+00     0.00
  -85.00     0.00       0.89 -999.99    0.89    0.00000     0.00  LINEAR    5.11358E-01  -100.35    0.00000E+00     0.00
  -80.00     0.00       0.75 -999.99    0.75    0.00000     0.00  LINEAR    5.02757E-01  -100.35    0.00000E+00     0.00
  -75.00     0.00       0.50 -999.99    0.50    0.00000     0.00  LINEAR    4.88727E-01  -100.34    0.00000E+00     0.00
  -70.00     0.00       0.16 -999.99    0.16    0.00000     0.00  LINEAR    4.69701E-01  -100.32    0.00000E+00     0.00
  -65.00     0.00      -0.29 -999.99   -0.29    0.00000     0.00  LINEAR    4.46241E-01  -100.30    0.00000E+00     0.00
  -60.00     0.00      -0.84 -999.99   -0.84    0.00000     0.00  LINEAR    4.18996E-01  -100.28    0.00000E+00     0.00
  -55.00     0.00      -1.49 -999.99   -1.49    0.00000     0.00  LINEAR    3.88665E-01  -100.26    0.00000E+00     0.00
  -50.00     0.00      -2.25 -999.99   -2.25    0.00000     0.00  LINEAR    3.55948E-01  -100.23    0.00000E+00     0.00
  -45.00     0.00      -3.14 -999.99   -3.14    0.00000     0.00  LINEAR    3.21513E-01  -100.20    0.00000E+00     0.00
  -40.00     0.00      -4.15 -999.99   -4.15    0.00000     0.00  LINEAR    2.85958E-01  -100.18    0.00000E+00     0.00
  -35.00     0.00      -5.33 -999.99   -5.33    0.00000     0.00  LINEAR    2.49791E-01  -100.15    0.00000E+00     0.00
  -30.00     0.00      -6.70 -999.99   -6.70    0.00000     0.00  LINEAR    2.13415E-01  -100.12    0.00000E+00     0.00
  -25.00     0.00      -8.32 -999.99   -8.32    0.00000     0.00  LINEAR    1.77120E-01  -100.10    0.00000E+00     0.00
  -20.00     0.00     -10.29 -999.99  -10.29    0.00000     0.00  LINEAR    1.41087E-01  -100.07    0.00000E+00     0.00
  -15.00     0.00     -12.82 -999.99  -12.82    0.00000     0.00  LINEAR    1.05395E-01  -100.06    0.00000E+00     0.00
  -10.00     0.00     -16.37 -999.99  -16.37    0.00000     0.00  LINEAR    7.00405E-02  -100.04    0.00000E+00     0.00
   -5.00     0.00     -22.41 -999.99  -22.41    0.00000     0.00  LINEAR    3.49486E-02  -100.03    0.00000E+00     0.00
    0.00     0.00    -999.99 -999.99 -999.99    0.00000     0.00            0.00000E+00     0.00    0.00000E+00     0.00
 -180.00     5.00    -999.99 -999.99 -999.99    0.00000     0.00            4.08476E-12    79.97    0.00000E+00     0.00
 -175.00     5.00     -22.43 -999.99  -22.43    0.00000     0.00  LINEAR    3.48570E-02  -125.83    0.00000E+00     0.00
 -170.00     5.00     -16.42 -999.99  -16.42    0.00000     0.00  LINEAR    6.96462E-02  -151.47    0.00000E+00     0.00
 -165.00     5.00     -12.90 -999.99  -12.90    0.00000     0.00  LINEAR    1.04470E-01  -176.75    0.00000E+00     0.00
 -160.00     5.00     -10.39 -999.99  -10.39    0.00000     0.00  LINEAR    1.39424E-01   158.52    0.00000E+00     0.00
 -155.00     5.00      -8.44 -999.99   -8.44    0.00000     0.00  LINEAR    1.74564E-01   134.53    0.00000E+00     0.00
 -150.00     5.00      -6.84 -999.99   -6.84    0.00000     0.00  LINEAR    2.09875E-01   111.48    0.00000E+00     0.00
 -145.00     5.00      -5.49 -999.99   -5.49    0.00000     0.00  LINEAR    2.45237E-01    89.56    0.00000E+00     0.00
 -140.00     5.00      -4.32 -999.99   -4.32    0.00000     0.00  LINEAR    2.80405E-01    68.93    0.00000E+00     0.00
 -135.00     5.00      -3.31 -999.99   -3.31    0.00000     0.00  LINEAR    3.14996E-01    49.78    0.00000E+00     0.00
 -130.00     5.00      -2.44 -999.99   -2.44    0.00000     0.00  LINEAR    3.48509E-01    32.23    0.00000E+00     0.00
 -125.00     5.00      -1.68 -999.99   -1.68    0.00000     0.00  LINEAR    3.80343E-01    16.43    0.00000E+00     0.00
 -120.00     5.00      -1.03 -999.99   -1.03    0.00000     0.00  LINEAR    4.09832E-01     2.50    0.00000E+00     0.00
 -115.00     5.00      -0.49 -999.99   -0.49    0.00000     0.00  LINEAR    4.36286E-01    -9.47    0.00000E+00     0.00
 -110.00     5.00      -0.04 -999.99   -0.04    0.00000     0.00  LINEAR    4.59032E-01   -19.38    0.00000E+00     0.00
 -105.00     5.00       0.30 -999.99    0.30    0.00000     0.00  LINEAR    4.77449E-01   -27.17    0.00000E+00     0.00
 -100.00     5.00       0.54 -999.99    0.54    0.00000     0.00  LINEAR    4.91012E-01   -32.77    0.00000E+00     0.00
  -95.00     5.00       0.69 -999.99    0.69    0.00000     0.00  LINEAR    4.99318E-01   -36.15    0.00000E+00     0.00
  -90.00     5.00       0.74 -999.99    0.74    0.00000     0.00  LINEAR    5.02115E-01   -37.28    0.00000E+00     0.00
  -85.00     5.00       0.69 -999.99    0.69    0.00000     0.00  LINEAR    4.99318E-01   -36.15    0.00000E+00     0.00
  -80.00     5.00       0.54 -999.99    0.54    0.00000     0.00  LINEAR    4.91012E-01   -32.77    0.00000E+00     0.00
  -75.00     5.00       0.30 -999.99    0.30    0.00000     0.00  LINEAR    4.77449E-01   -27.17    0.00000E+00     0.00
  -70.00     5.00      -0.04 -999.99   -0.04    0.00000     0.00  LINEAR    4.59032E-01   -19.38    0.00000E+00     0.00
  -65.00     5.00      -0.49 -999.99   -0.49    0.00000     0.00  LINEAR    4.36286E-01    -9.47    0.00000E+00     0.00
  -60.00     5.00      -1.03 -999.99   -1.03    0.00000     0.00  LINEAR    4.09832E-01     2.50    0.00000E+00     0.00
  -55.00     5.00      -1.68 -999.99   -1.68    0.00000     0.00  LINEAR    3.80343E-01    16.43    0.00000E+00     0.00
  -50.00     5.00      -2.44 -999.99   -2.44    0.00000     0.00  LINEAR    3.48509E-01    32.23    0.00000E+00     0.00
  -45.00     5.00      -3.31 -999.99   -3.31    0.00000     0.00  LINEAR    3.14996E-01    49.78    0.00000E+00     0.00
  -40.00     5.00      -4.32 -999.99   -4.32    0.00000     0.00  LINEAR    2.80405E-01    68.93    0.00000E+00     0.00
  -35.00     5.00      -5.49 -999.99   -5.49    0.00000     0.00  LINEAR    2.45237E-01    89.56    0.00000E+00     0.00
  -30.00     5.00      -6.84 -999.99   -6.84    0.00000     0.00  LINEAR    2.09875E-01   111.48    0.00000E+00     0.00
  -25.00     5.00      -8.44 -999.99   -8.44    0.00000     0.00  LINEAR    1.74564E-01   134.53    0.00000E+00     0.00
  -20.00     5.00     -10.39 -999.99  -10.39    0.00000     0.00  LINEAR    1.39424E-01   158.52    0.00000E+00     0.00
  -15.00     5.00     -12.90 -999.99  -12.90    0.00000     0.00  LINEAR    1.04470E-01  -176.75    0.00000E+00     0.00
  -10.00     5.00     -16.42 -999.99  -16.42    0.00000     0.00  LINEAR    6.96462E-02  -151.47    0.00000E+00     0.00
   -5.00     5.00     -22.43 -999.99  -22.43    0.00000     0.00  LINEAR    3.48570E-02  -125.83    0.00000E+00     0.00
    0.00     5.00    -999.99 -999.99 -999.99    0.00000     0.00            0.00000E+00     0.00    0.00000E+00     0.00
 -180.00    10.00    -999.99 -999.99 -999.99    0.00000     0.00            4.08476E-12    79.97    0.00000E+00     0.00
 -175.00    10.00     -22.46 -999.99  -22.46    0.00000     0.00  LINEAR    3.47519E-02  -151.46    0.00000E+00     0.00
 -170.00    10.00     -16.48 -999.99  -16.48    0.00000     0.00  LINEAR    6.92060E-02   157.38    0.00000E+00     0.00
 -165.00    10.00     -12.97 -999.99  -12.97    0.00000     0.00  LINEAR    1.03609E-01   106.89    0.00000E+00     0.00
 -160.00    10.00     -10.47 -999.99  -10.47    0.00000     0.00  LINEAR    1.38276E-01    57.54    0.00000E+00     0.00
 -155.00    10.00      -8.50 -999.99   -8.50    0.00000     0.00  LINEAR    1.73300E-01     9.82    0.00000E+00     0.00
 -150.00    10.00      -6.90 -999.99   -6.90    0.00000     0.00  LINEAR    2.08415E-01   -35.91    0.00000E+00     0.00
 -145.00    10.00      -5.56 -999.99   -5.56    0.00000     0.00  LINEAR    2.43147E-01   -79.33    0.00000E+00     0.00
 -140.00    10.00      -4.43 -999.99   -4.43    0.00000     0.00  LINEAR    2.77055E-01  -120.19    0.00000E+00     0.00
 -135.00    10.00      -3.46 -999.99   -3.46    0.00000     0.00  LINEAR    3.09851E-01  -158.23    0.00000E+00     0.00
 -130.00    10.00      -2.62 -999.99   -2.62    0.00000     0.00  LINEAR    3.41327E-01   166.84    0.00000E+00     0.00
 -125.00    10.00      -1.89 -999.99   -1.89    0.00000     0.00  LINEAR    3.71200E-01   135.31    0.00000E+00     0.00
 -120.00    10.00      -1.26 -999.99   -1.26    0.00000     0.00  LINEAR    3.99013E-01   107.46    0.00000E+00     0.00
 -115.00    10.00      -0.73 -999.99   -0.73    0.00000     0.00  LINEAR    4.24144E-01    83.53    0.00000E+00     0.00
 -110.00    10.00      -0.30 -999.99   -0.30    0.00000     0.00  LINEAR    4.45890E-01    63.71    0.00000E+00     0.00
 -105.00    10.00       0.04 -999.99    0.04    0.00000     0.00  LINEAR    4.63579E-01    48.14    0.00000E+00     0.00
 -100.00    10.00       0.28 -999.99    0.28    0.00000     0.00  LINEAR    4.76639E-01    36.94    0.00000E+00     0.00
  -95.00    10.00       0.43 -999.99    0.43    0.00000     0.00  LINEAR    4.84647E-01    30.19    0.00000E+00     0.00
  -90.00    10.00       0.48 -999.99    0.48    0.00000     0.00  LINEAR    4.87345E-01    27.93    0.00000E+00     0.00
  -85.00    10.00       0.43 -999.99    0.43    0.00000     0.00  LINEAR    4.84647E-01    30.19    0.00000E+00     0.00
  -80.00    10.00       0.28 -999.99    0.28    0.00000     0.00  LINEAR    4.76639E-01    36.94    0.00000E+00     0.00
  -75.00    10.00       0.04 -999.99    0.04    0.00000     0.00  LINEAR    4.63579E-01    48.14    0.00000E+00     0.00
  -70.00    10.00      -0.30 -999.99   -0.30    0.00000     0.00  LINEAR    4.45890E-01    63.71    0.00000E+00     0.00
  -65.00    10.00      -0.73 -999.99   -0.73    0.00000     0.00  LINEAR    4.24144E-01    83.53    0.00000E+00     0.00
  -60.00    10.00      -1.26 -999.99   -1.26    0.00000     0.00  LINEAR    3.99013E-01   107.46    0.00000E+00     0.00
  -55.00    10.00      -1.89 -999.99   -1.89    0.00000     0.00  LINEAR    3.71200E-01   135.31    0.00000E+00     0.00
  -50.00    10.00      -2.62 -999.99   -2.62    0.00000     0.00  LINEAR    3.41327E-01   166.84    0.00000E+00     0.00
  -45.00    10.00      -3.46 -999.99   -3.46    0.00000     0.00  LINEAR    3.09851E-01  -158.23    0.00000E+00     0.00
  -40.00    10.00      -4.43 -999.99   -4.43    0.00000     0.00  LINEAR    2.77055E-01  -120.19    0.00000E+00     0.00
  -35.00    10.00      -5.56 -999.99   -5.56    0.00000     0.00  LINEAR    2.43147E-01   -79.33    0.00000E+00     0.00
  -30.00    10.00      -6.90 -999.99   -6.90    0.00000     0.00  LINEAR    2.08415E-01   -35.91    0.00000E+00     0.00
  -25.00    10.00      -8.50 -999.99   -8.50    0.00000     0.00  LINEAR    1.73300E-01     9.82    0.00000E+00     0.00
  -20.00    10.00     -10.47 -999.99  -10.47    0.00000     0.00  LINEAR    1.38276E-01    57.54    0.00000E+00     0.00
  -15.00    10.00     -12.97 -999.99  -12.97    0.00000     0.00  LINEAR    1.03609E-01   106.89    0.00000E+00     0.00
  -10.00    10.00     -16.48 -999.99  -16.48    0.00000     0.00  LINEAR    6.92060E-02   157.38    0.00000E+00     0.00
   -5.00    10.00     -22.46 -999.99  -22.46    0.00000     0.00  LINEAR    3.47519E-02  -151.46    0.00000E+00     0.00
    0.00    10.00    -999.99 -999.99 -999.99    0.00000     0.00            0.00000E+00     0.00    0.00000E+00     0.00
 -180.00    15.00    -999.99 -999.99 -999.99    0.00000     0.00            4.08476E-12    79.97    0.00000E+00     0.00
 -175.00    15.00     -22.49 -999.99  -22.49    0.00000     0.00  LINEAR    3.46420E-02  -176.72    0.00000E+00     0.00
 -170.00    15.00     -16.52 -999.99  -16.52    0.00000     0.00  LINEAR    6.88533E-02   106.90    0.00000E+00     0.00
 -165.00    15.00     -13.01 -999.99  -13.01    0.00000     0.00  LINEAR    1.03196E-01    31.66    0.00000E+00     0.00
 -160.00    15.00     -10.50 -999.99  -10.50    0.00000     0.00  LINEAR    1.37739E-01   -41.62    0.00000E+00     0.00
 -155.00    15.00      -8.58 -999.99   -8.58    0.00000     0.00  LINEAR    1.71783E-01  -112.50    0.00000E+00     0.00
 -150.00    15.00      -7.04 -999.99   -7.04    0.00000     0.00  LINEAR    2.05022E-01   179.28    0.00000E+00     0.00
 -145.00    15.00      -5.75 -999.99   -5.75    0.00000     0.00  LINEAR    2.38055E-01   114.21    0.00000E+00     0.00
 -140.00    15.00      -4.61 -999.99   -4.61    0.00000     0.00  LINEAR    2.71346E-01    52.97    0.00000E+00     0.00
 -135.00    15.00      -3.61 -999.99   -3.61    0.00000     0.00  LINEAR    3.04294E-01    -3.80    0.00000E+00     0.00
 -130.00    15.00      -2.76 -999.99   -2.76    0.00000     0.00  LINEAR    3.35651E-01   -55.69    0.00000E+00     0.00
 -125.00    15.00      -2.05 -999.99   -2.05    0.00000     0.00  LINEAR    3.64462E-01  -102.44    0.00000E+00     0.00
 -120.00    15.00      -1.45 -999.99   -1.45    0.00000     0.00  LINEAR    3.90379E-01  -143.77    0.00000E+00     0.00
 -115.00    15.00      -0.95 -999.99   -0.95    0.00000     0.00  LINEAR    4.13324E-01  -179.36    0.00000E+00     0.00
 -110.00    15.00      -0.55 -999.99   -0.55    0.00000     0.00  LINEAR    4.33096E-01   151.08    0.00000E+00     0.00
 -105.00    15.00      -0.23 -999.99   -0.23    0.00000     0.00  LINEAR    4.49267E-01   127.83    0.00000E+00     0.00
 -100.00    15.00       0.00 -999.99    0.00    0.00000     0.00  LINEAR    4.61305E-01   111.09    0.00000E+00     0.00
  -95.00    15.00       0.14 -999.99    0.14    0.00000     0.00  LINEAR    4.68735E-01   101.00    0.00000E+00     0.00
  -90.00    15.00       0.18 -999.99    0.18    0.00000     0.00  LINEAR    4.71248E-01    97.63    0.00000E+00     0.00
  -85.00    15.00       0.14 -999.99    0.14    0.00000     0.00  LINEAR    4.68735E-01   101.00    0.00000E+00     0.00
  -80.00    15.00       0.00 -999.99    0.00    0.00000     0.00  LINEAR    4.61305E-01   111.09    0.00000E+00     0.00
  -75.00    15.00      -0.23 -999.99   -0.23    0.00000     0.00  LINEAR    4.49267E-01   127.83    0.00000E+00     0.00
  -70.00    15.00      -0.55 -999.99   -0.55    0.00000     0.00  LINEAR    4.33096E-01   151.08    0.00000E+00     0.00
  -65.00    15.00      -0.95 -999.99   -0.95    0.00000     0.00  LINEAR    4.13324E-01  -179.36    0.00000E+00     0.00
  -60.00    15.00      -1.45 -999.99   -1.45    0.00000     0.00  LINEAR    3.90379E-01  -143.77    0.00000E+00     0.00
  -55.00    15.00      -2.05 -999.99   -2.05    0.00000     0.00  LINEAR    3.64462E-01  -102.44    0.00000E+00     0.00
  -50.00    15.00      -2.76 -999.99   -2.76    0.00000     0.00  LINEAR    3.35651E-01   -55.69    0.00000E+00     0.00
  -45.00    15.00      -3.61 -999.99   -3.61    0.00000     0.00  LINEAR    3.04294E-01    -3.80    0.00000E+00     0.00
  -40.00    15.00      -4.61 -999.99   -4.61    0.00000     0.00  LINEAR    2.71346E-01    52.97    0.00000E+00     0.00
  -35.00    15.00      -5.75 -999.99   -5.75    0.00000     0.00  LINEAR    2.38055E-01   114.21    0.00000E+00     0.00
  -30.00    15.00      -7.04 -999.99   -7.04    0.00000     0.00  LINEAR    2.05022E-01   179.28    0.00000E+00     0.00
  -25.00    15.00      -8.58 -999.99   -8.58    0.00000     0.00  LINEAR    1.71783E-01  -112.50    0.00000E+00     0.00
  -20.00    15.00     -10.50 -999.99  -10.50    0.00000     0.00  LINEAR    1.37739E-01   -41.62    0.00000E+00     0.00
  -15.00    15.00     -13.01 -999.99  -13.01    0.00000     0.00  LINEAR    1.03196E-01    31.66    0.00000E+00     0.00
  -10.00    15.00     -16.52 -999.99  -16.52    0.00000     0.00  LINEAR    6.88533E-02   106.90    0.00000E+00     0.00
   -5.00    15.00     -22.49 -999.99  -22.49    0.00000     0.00  LINEAR    3.46420E-02  -176.72    0.00000E+00     0.00
    0.00    15.00    -999.99 -999.99 -999.99    0.00000     0.00            0.00000E+00     0.00    0.00000E+00     0.00
 -180.00    20.00    -999.99 -999.99 -999.99    0.00000     0.00            4.08476E-12    79.97    0.00000E+00     0.00
 -175.00    20.00     -22.51 -999.99  -22.51    0.00000     0.00  LINEAR    3.45371E-02   158.56    0.00000E+00     0.00
 -170.00    20.00     -16.55 -999.99  -16.55    0.00000     0.00  LINEAR    6.86459E-02    57.58    0.00000E+00     0.00
 -165.00    20.00     -13.03 -999.99  -13.03    0.00000     0.00  LINEAR    1.02896E-01   -41.61    0.00000E+00     0.00
 -160.00    20.00     -10.59 -999.99  -10.59    0.00000     0.00  LINEAR    1.36369E-01  -138.31    0.00000E+00     0.00
 -155.00    20.00      -8.72 -999.99   -8.72    0.00000     0.00  LINEAR    1.69038E-01   127.63    0.00000E+00     0.00
 -150.00    20.00      -7.16 -999.99   -7.16    0.00000     0.00  LINEAR    2.02373E-01    37.19    0.00000E+00     0.00
 -145.00    20.00      -5.83 -999.99   -5.83    0.00000     0.00  LINEAR    2.35723E-01   -48.49    0.00000E+00     0.00
 -140.00    20.00      -4.75 -999.99   -4.75    0.00000     0.00  LINEAR    2.67103E-01  -129.00    0.00000E+00     0.00
 -135.00    20.00      -3.83 -999.99   -3.83    0.00000     0.00  LINEAR    2.96707E-01   155.89    0.00000E+00     0.00
 -130.00    20.00      -3.02 -999.99   -3.02    0.00000     0.00  LINEAR    3.25944E-01    86.88    0.00000E+00     0.00
 -125.00    20.00      -2.29 -999.99   -2.29    0.00000     0.00  LINEAR    3.54563E-01    24.79    0.00000E+00     0.00
 -120.00    20.00      -1.67 -999.99   -1.67    0.00000     0.00  LINEAR    3.80831E-01   -29.82    0.00000E+00     0.00
 -115.00    20.00      -1.17 -999.99   -1.17    0.00000     0.00  LINEAR    4.03393E-01   -76.70    0.00000E+00     0.00
 -110.00    20.00      -0.78 -999.99   -0.78    0.00000     0.00  LINEAR    4.21910E-01  -115.58    0.00000E+00     0.00
 -105.00    20.00      -0.48 -999.99   -0.48    0.00000     0.00  LINEAR    4.36492E-01  -146.20    0.00000E+00     0.00
 -100.00    20.00      -0.27 -999.99   -0.27    0.00000     0.00  LINEAR    4.47144E-01  -168.27    0.00000E+00     0.00
  -95.00    20.00      -0.15 -999.99   -0.15    0.00000     0.00  LINEAR    4.53681E-01   178.40    0.00000E+00     0.00
  -90.00    20.00      -0.10 -999.99   -0.10    0.00000     0.00  LINEAR    4.55890E-01   173.94    0.00000E+00     0.00
  -85.00    20.00      -0.15 -999.99   -0.15    0.00000     0.00  LINEAR    4.53681E-01   178.40    0.00000E+00     0.00
  -80.00    20.00      -0.27 -999.99   -0.27    0.00000     0.00  LINEAR    4.47144E-01  -168.27    0.00000E+00     0.00
  -75.00    20.00      -0.48 -999.99   -0.48    0.00000     0.00  LINEAR    4.36492E-01  -146.20    0.00000E+00     0.00
  -70.00    20.00      -0.78 -999.99   -0.78    0.00000     0.00  LINEAR    4.21910E-01  -115.58    0.00000E+00     0.00
  -65.00    20.00      -1.17 -999.99   -1.17    0.00000     0.00  LINEAR    4.03393E-01   -76.70    0.00000E+00     0.00
  -60.00    20.00      -1.67 -999.99   -1.67    0.00000     0.00  LINEAR    3.80831E-01   -29.82    0.00000E+00     0.00
  -55.00    20.00      -2.29 -999.99   -2.29    0.00000     0.00  LINEAR    3.54563E-01    24.79    0.00000E+00     0.00
  -50.00    20.00      -3.02 -999.99   -3.02    0.00000     0.00  LINEAR    3.25944E-01    86.88    0.00000E+00     0.00
  -45.00    20.00      -3.83 -999.99   -3.83    0.00000     0.00  LINEAR    2.96707E-01   155.89    0.00000E+00     0.00
  -40.00    20.00      -4.75 -999.99   -4.75    0.00000     0.00  LINEAR    2.67103E-01  -129.00    0.00000E+00     0.00
  -35.00    20.00      -5.83 -999.99   -5.83    0.00000     0.00  LINEAR    2.35723E-01   -48.49    0.00000E+00     0.00
  -30.00    20.00      -7.16 -999.99   -7.16    0.00000     0.00  LINEAR    2.02373E-01    37.19    0.00000E+00     0.00
  -25.00    20.00      -8.72 -999.99   -8.72    0.00000     0.00  LINEAR    1.69038E-01   127.63    0.00000E+00     0.00
  -20.00    20.00     -10.59 -999.99  -10.59    0.00000     0.00  LINEAR    1.36369E-01  -138.31    0.00000E+00     0.00
  -15.00    20.00     -13.03 -999.99  -13.03    0.00000     0.00  LINEAR    1.02896E-01   -41.61    0.00000E+00     0.00
  -10.00    20.00     -16.55 -999.99  -16.55    0.00000     0.00  LINEAR    6.86459E-02    57.58    0.00000E+00     0.00
   -5.00    20.00     -22.51 -999.99  -22.51    0.00000     0.00  LINEAR    3.45371E-02   158.56    0.00000E+00     0.00
    0.00    20.00    -999.99 -999.99 -999.99    0.00000     0.00            0.00000E+00     0.00    0.00000E+00     0.00
 -180.00    25.00    -999.99 -999.99 -999.99    0.00000     0.00            4.08476E-12    79.97    0.00000E+00     0.00
 -175.00    25.00     -22.54 -999.99  -22.54    0.00000     0.00  LINEAR    3.44447E-02   134.60    0.00000E+00     0.00
 -170.00    25.00     -16.56 -999.99  -16.56    0.00000     0.00  LINEAR    6.85312E-02     9.87    0.00000E+00     0.00
 -165.00    25.00     -13.09 -999.99  -13.09    0.00000     0.00  LINEAR    1.02223E-01  -112.46    0.00000E+00     0.00
 -160.00    25.00     -10.70 -999.99  -10.70    0.00000     0.00  LINEAR    1.34651E-01   127.65    0.00000E+00     0.00
 -155.00    25.00      -8.79 -999.99   -8.79    0.00000     0.00  LINEAR    1.67772E-01    11.32    0.00000E+00     0.00
 -150.00    25.00      -7.25 -999.99   -7.25    0.00000     0.00  LINEAR    2.00231E-01   -99.89    0.00000E+00     0.00
 -145.00    25.00      -6.03 -999.99   -6.03    0.00000     0.00  LINEAR    2.30475E-01   154.04    0.00000E+00     0.00
 -140.00    25.00      -4.94 -999.99   -4.94    0.00000     0.00  LINEAR    2.61305E-01    53.95    0.00000E+00     0.00
 -135.00    25.00      -3.97 -999.99   -3.97    0.00000     0.00  LINEAR    2.92021E-01   -38.70    0.00000E+00     0.00
 -130.00    25.00      -3.20 -999.99   -3.20    0.00000     0.00  LINEAR    3.19322E-01  -123.48    0.00000E+00     0.00
 -125.00    25.00      -2.55 -999.99   -2.55    0.00000     0.00  LINEAR    3.43784E-01   159.79    0.00000E+00     0.00
 -120.00    25.00      -1.98 -999.99   -1.98    0.00000     0.00  LINEAR    3.67437E-01    91.86    0.00000E+00     0.00
 -115.00    25.00      -1.46 -999.99   -1.46    0.00000     0.00  LINEAR    3.89752E-01    33.60    0.00000E+00     0.00
 -110.00    25.00      -1.05 -999.99   -1.05    0.00000     0.00  LINEAR    4.08811E-01   -14.53    0.00000E+00     0.00
 -105.00    25.00      -0.74 -999.99   -0.74    0.00000     0.00  LINEAR    4.23517E-01   -52.27    0.00000E+00     0.00
 -100.00    25.00      -0.54 -999.99   -0.54    0.00000     0.00  LINEAR    4.33789E-01   -79.44    0.00000E+00     0.00
  -95.00    25.00      -0.41 -999.99   -0.41    0.00000     0.00  LINEAR    4.39858E-01   -95.84    0.00000E+00     0.00
  -90.00    25.00      -0.37 -999.99   -0.37    0.00000     0.00  LINEAR    4.41869E-01  -101.32    0.00000E+00     0.00
  -85.00    25.00      -0.41 -999.99   -0.41    0.00000     0.00  LINEAR    4.39858E-01   -95.84    0.00000E+00     0.00
  -80.00    25.00      -0.54 -999.99   -0.54    0.00000     0.00  LINEAR    4.33789E-01   -79.44    0.00000E+00     0.00
  -75.00    25.00      -0.74 -999.99   -0.74    0.00000     0.00  LINEAR    4.23517E-01   -52.27    0.00000E+00     0.00
  -70.00    25.00      -1.05 -999.99   -1.05    0.00000     0.00  LINEAR    4.08811E-01   -14.53    0.00000E+00     0.00
  -65.00    25.00      -1.46 -999.99   -1.46    0.00000     0.00  LINEAR    3.89752E-01    33.60    0.00000E+00     0.00
  -60.00    25.00      -1.98 -999.99   -1.98    0.00000     0.00  LINEAR    3.67437E-01    91.86    0.00000E+00     0.00
  -55.00    25.00      -2.55 -999.99   -2.55    0.00000     0.00  LINEAR    3.43784E-01   159.79    0.00000E+00     0.00
  -50.00    25.00      -3.20 -999.99   -3.20    0.00000     0.00  LINEAR    3.19322E-01  -123.48    0.00000E+00     0.00
  -45.00    25.00      -3.97 -999.99   -3.97    0.00000     0.00  LINEAR    2.92021E-01   -38.70    0.00000E+00     0.00
  -40.00    25.00      -4.94 -999.99   -4.94    0.00000     0.00  LINEAR    2.61305E-01    53.95    0.00000E+00     0.00
  -35.00    25.00      -6.03 -999.99   -6.03    0.00000     0.00  LINEAR    2.30475E-01   154.04    0.00000E+00     0.00
  -30.00    25.00      -7.25 -999.99   -7.25    0.00000     0.00  LINEAR    2.00231E-01   -99.89    0.00000E+00     0.00
  -25.00    25.00      -8.79 -999.99   -8.79    0.00000     0.00  LINEAR    1.67772E-01    11.32    0.00000E+00     0.00
  -20.00    25.00     -10.70 -999.99  -10.70    0.00000     0.00  LINEAR    1.34651E-01   127.65    0.00000E+00     0.00
  -15.00    25.00     -13.09 -999.99  -13.09    0.00000     0.00  LINEAR    1.02223E-01  -112.46    0.00000E+00     0.00
  -10.00    25.00     -16.56 -999.99  -16.56    0.00000     0.00  LINEAR    6.85312E-02     9.87    0.00000E+00     0.00
   -5.00    25.00     -22.54 -999.99  -22.54    0.00000     0.00  LINEAR    3.44447E-02   134.60    0.00000E+00     0.00
    0.00    25.00    -999.99 -999.99 -999.99    0.00000     0.00            0.00000E+00     0.00    0.00000E+00     0.00
 -180.00    30.00    -999.99 -999.99 -999.99    0.00000     0.00            4.08476E-12    79.97    0.00000E+00     0.00
 -175.00    30.00     -22.56 -999.99  -22.56    0.00000     0.00  LINEAR    3.43696E-02   111.57    0.00000E+00     0.00
 -170.00    30.00     -16.58 -999.99  -16.58    0.00000     0.00  LINEAR    6.84023E-02   -35.82    0.00000E+00     0.00
 -165.00    30.00     -13.17 -999.99  -13.17    0.00000     0.00  LINEAR    1.01257E-01   179.35    0.00000E+00     0.00
 -160.00    30.00     -10.75 -999.99  -10.75    0.00000     0.00  LINEAR    1.33793E-01    37.24    0.00000E+00     0.00
 -155.00    30.00      -8.87 -999.99   -8.87    0.00000     0.00  LINEAR    1.66184E-01   -99.87    0.00000E+00     0.00
 -150.00    30.00      -7.42 -999.99   -7.42    0.00000     0.00  LINEAR    1.96248E-01   128.08    0.00000E+00     0.00
 -145.00    30.00      -6.14 -999.99   -6.14    0.00000     0.00  LINEAR    2.27624E-01     2.36    0.00000E+00     0.00
 -140.00    30.00      -5.08 -999.99   -5.08    0.00000     0.00  LINEAR    2.56935E-01  -115.41    0.00000E+00     0.00
 -135.00    30.00      -4.23 -999.99   -4.23    0.00000     0.00  LINEAR    2.83338E-01   134.62    0.00000E+00     0.00
 -130.00    30.00      -3.43 -999.99   -3.43    0.00000     0.00  LINEAR    3.10931E-01    33.69    0.00000E+00     0.00
 -125.00    30.00      -2.74 -999.99   -2.74    0.00000     0.00  LINEAR    3.36638E-01   -56.79    0.00000E+00     0.00
 -120.00    30.00      -2.22 -999.99   -2.22    0.00000     0.00  LINEAR    3.57374E-01  -136.70    0.00000E+00     0.00
 -115.00    30.00      -1.79 -999.99   -1.79    0.00000     0.00  LINEAR    3.75247E-01   154.25    0.00000E+00     0.00
 -110.00    30.00      -1.42 -999.99   -1.42    0.00000     0.00  LINEAR    3.91921E-01    96.89    0.00000E+00     0.00
 -105.00    30.00      -1.10 -999.99   -1.10    0.00000     0.00  LINEAR    4.06372E-01    51.90    0.00000E+00     0.00
 -100.00    30.00      -0.88 -999.99   -0.88    0.00000     0.00  LINEAR    4.17127E-01    19.62    0.00000E+00     0.00
  -95.00    30.00      -0.74 -999.99   -0.74    0.00000     0.00  LINEAR    4.23582E-01     0.19    0.00000E+00     0.00
  -90.00    30.00      -0.70 -999.99   -0.70    0.00000     0.00  LINEAR    4.25717E-01    -6.30    0.00000E+00     0.00
  -85.00    30.00      -0.74 -999.99   -0.74    0.00000     0.00  LINEAR    4.23582E-01     0.19    0.00000E+00     0.00
  -80.00    30.00      -0.88 -999.99   -0.88    0.00000     0.00  LINEAR    4.17127E-01    19.62    0.00000E+00     0.00
  -75.00    30.00      -1.10 -999.99   -1.10    0.00000     0.00  LINEAR    4.06372E-01    51.90    0.00000E+00     0.00
  -70.00    30.00      -1.42 -999.99   -1.42    0.00000     0.00  LINEAR    3.91921E-01    96.89    0.00000E+00     0.00
  -65.00    30.00      -1.79 -999.99   -1.79    0.00000     0.00  LINEAR    3.75247E-01   154.25    0.00000E+00     0.00
  -60.00    30.00      -2.22 -999.99   -2.22    0.00000     0.00  LINEAR    3.57374E-01  -136.70    0.00000E+00     0.00
  -55.00    30.00      -2.74 -999.99   -2.74    0.00000     0.00  LINEAR    3.36638E-01   -56.79    0.00000E+00     0.00
  -50.00    30.00      -3.43 -999.99   -3.43    0.00000     0.00  LINEAR    3.10931E-01    33.69    0.00000E+00     0.00
  -45.00    30.00      -4.23 -999.99   -4.23    0.00000     0.00  LINEAR    2.83338E-01   134.62    0.00000E+00     0.00
  -40.00    30.00      -5.08 -999.99   -5.08    0.00000     0.00  LINEAR    2.56935E-01  -115.41    0.00000E+00     0.00
  -35.00    30.00      -6.14 -999.99   -6.14    0.00000     0.00  LINEAR    2.27624E-01     2.36    0.00000E+00     0.00
  -30.00    30.00      -7.42 -999.99   -7.42    0.00000     0.00  LINEAR    1.96248E-01   128.08    0.00000E+00     0.00
  -25.00    30.00      -8.87 -999.99   -8.87    0.00000     0.00  LINEAR    1.66184E-01   -99.87    0.00000E+00     0.00
  -20.00    30.00     -10.75 -999.99  -10.75    0.00000     0.00  LINEAR    1.33793E-01    37.24    0.00000E+00     0.00
  -15.00    30.00     -13.17 -999.99  -13.17    0.00000     0.00  LINEAR    1.01257E-01   179.35    0.00000E+00     0.00
  -10.00    30.00     -16.58 -999.99  -16.58    0.00000     0.00  LINEAR    6.84023E-02   -35.82    0.00000E+00     0.00
   -5.00    30.00     -22.56 -999.99  -22.56    0.00000     0.00  LINEAR    3.43696E-02   111.57    0.00000E+00     0.00
    0.00    30.00    -999.99 -999.99 -999.99    0.00000     0.00            0.00000E+00     0.00    0.00000E+00     0.00
 -180.00    35.00    -999.99 -999.99 -999.99    0.00000     0.00            4.08476E-12    79.97    0.00000E+00     0.00
 -175.00    35.00     -22.57 -999.99  -22.57    0.00000     0.00  LINEAR    3.43125E-02    89.67    0.00000E+00     0.00
 -170.00    35.00     -16.61 -999.99  -16.61    0.00000     0.00  LINEAR    6.81824E-02   -79.22    0.00000E+00     0.00
 -165.00    35.00     -13.24 -999.99  -13.24    0.00000     0.00  LINEAR    1.00452E-01   114.31    0.00000E+00     0.00
 -160.00    35.00     -10.79 -999.99  -10.79    0.00000     0.00  LINEAR    1.33153E-01   -48.41    0.00000E+00     0.00
 -155.00    35.00      -9.01 -999.99   -9.01    0.00000     0.00  LINEAR    1.63437E-01   154.10    0.00000E+00     0.00
 -150.00    35.00      -7.50 -999.99   -7.50    0.00000     0.00  LINEAR    1.94484E-01     2.39    0.00000E+00     0.00
 -145.00    35.00      -6.30 -999.99   -6.30    0.00000     0.00  LINEAR    2.23376E-01  -141.27    0.00000E+00     0.00
 -140.00    35.00      -5.30 -999.99   -5.30    0.00000     0.00  LINEAR    2.50626E-01    82.78    0.00000E+00     0.00
 -135.00    35.00      -4.37 -999.99   -4.37    0.00000     0.00  LINEAR    2.79025E-01   -43.13    0.00000E+00     0.00
 -130.00    35.00      -3.68 -999.99   -3.68    0.00000     0.00  LINEAR    3.02188E-01  -158.43    0.00000E+00     0.00
[...]
  -70.00   340.00       0.63 -999.99    0.63    0.00000     0.00  LINEAR    4.96034E-01   -87.62    0.00000E+00     0.00
  -65.00   340.00       0.17 -999.99    0.17    0.00000     0.00  LINEAR    4.70723E-01  -126.28    0.00000E+00     0.00
  -60.00   340.00      -0.40 -999.99   -0.40    0.00000     0.00  LINEAR    4.40691E-01  -172.97    0.00000E+00     0.00
  -55.00   340.00      -1.09 -999.99   -1.09    0.00000     0.00  LINEAR    4.07099E-01   132.56    0.00000E+00     0.00
  -50.00   340.00      -1.88 -999.99   -1.88    0.00000     0.00  LINEAR    3.71681E-01    70.72    0.00000E+00     0.00
  -45.00   340.00      -2.76 -999.99   -2.76    0.00000     0.00  LINEAR    3.35611E-01     2.13    0.00000E+00     0.00
  -40.00   340.00      -3.78 -999.99   -3.78    0.00000     0.00  LINEAR    2.98462E-01   -72.52    0.00000E+00     0.00
  -35.00   340.00      -5.00 -999.99   -5.00    0.00000     0.00  LINEAR    2.59529E-01  -152.76    0.00000E+00     0.00
  -30.00   340.00      -6.43 -999.99   -6.43    0.00000     0.00  LINEAR    2.20063E-01   121.66    0.00000E+00     0.00
  -25.00   340.00      -8.08 -999.99   -8.08    0.00000     0.00  LINEAR    1.81960E-01    31.48    0.00000E+00     0.00
  -20.00   340.00     -10.07 -999.99  -10.07    0.00000     0.00  LINEAR    1.44748E-01   -62.18    0.00000E+00     0.00
  -15.00   340.00     -12.67 -999.99  -12.67    0.00000     0.00  LINEAR    1.07342E-01  -158.75    0.00000E+00     0.00
  -10.00   340.00     -16.30 -999.99  -16.30    0.00000     0.00  LINEAR    7.06493E-02   102.03    0.00000E+00     0.00
   -5.00   340.00     -22.37 -999.99  -22.37    0.00000     0.00  LINEAR    3.51246E-02     1.21    0.00000E+00     0.00
    0.00   340.00    -999.99 -999.99 -999.99    0.00000     0.00            0.00000E+00     0.00    0.00000E+00     0.00
 -180.00   345.00    -999.99 -999.99 -999.99    0.00000     0.00            4.08476E-12    79.97    0.00000E+00     0.00
 -175.00   345.00     -22.37 -999.99  -22.37    0.00000     0.00  LINEAR    3.51038E-02   -23.45    0.00000E+00     0.00
 -170.00   345.00     -16.32 -999.99  -16.32    0.00000     0.00  LINEAR    7.04774E-02    52.74    0.00000E+00     0.00
 -165.00   345.00     -12.73 -999.99  -12.73    0.00000     0.00  LINEAR    1.06530E-01   127.93    0.00000E+00     0.00
 -160.00   345.00     -10.13 -999.99  -10.13    0.00000     0.00  LINEAR    1.43694E-01  -158.76    0.00000E+00     0.00
 -155.00   345.00      -8.10 -999.99   -8.10    0.00000     0.00  LINEAR    1.81500E-01   -87.97    0.00000E+00     0.00
 -150.00   345.00      -6.47 -999.99   -6.47    0.00000     0.00  LINEAR    2.19165E-01   -20.02    0.00000E+00     0.00
 -145.00   345.00      -5.09 -999.99   -5.09    0.00000     0.00  LINEAR    2.56685E-01    44.75    0.00000E+00     0.00
 -140.00   345.00      -3.90 -999.99   -3.90    0.00000     0.00  LINEAR    2.94568E-01   105.78    0.00000E+00     0.00
 -135.00   345.00      -2.84 -999.99   -2.84    0.00000     0.00  LINEAR    3.32718E-01   162.46    0.00000E+00     0.00
 -130.00   345.00      -1.91 -999.99   -1.91    0.00000     0.00  LINEAR    3.70093E-01  -145.74    0.00000E+00     0.00
 -125.00   345.00      -1.12 -999.99   -1.12    0.00000     0.00  LINEAR    4.05355E-01   -99.15    0.00000E+00     0.00
 -120.00   345.00      -0.46 -999.99   -0.46    0.00000     0.00  LINEAR    4.37515E-01   -58.04    0.00000E+00     0.00
 -115.00   345.00       0.09 -999.99    0.09    0.00000     0.00  LINEAR    4.66006E-01   -22.68    0.00000E+00     0.00
 -110.00   345.00       0.53 -999.99    0.53    0.00000     0.00  LINEAR    4.90402E-01     6.67    0.00000E+00     0.00
 -105.00   345.00       0.87 -999.99    0.87    0.00000     0.00  LINEAR    5.10220E-01    29.75    0.00000E+00     0.00
 -100.00   345.00       1.12 -999.99    1.12    0.00000     0.00  LINEAR    5.24908E-01    46.38    0.00000E+00     0.00
  -95.00   345.00       1.27 -999.99    1.27    0.00000     0.00  LINEAR    5.33957E-01    56.41    0.00000E+00     0.00
  -90.00   345.00       1.32 -999.99    1.32    0.00000     0.00  LINEAR    5.37015E-01    59.77    0.00000E+00     0.00
  -85.00   345.00       1.27 -999.99    1.27    0.00000     0.00  LINEAR    5.33957E-01    56.41    0.00000E+00     0.00
  -80.00   345.00       1.12 -999.99    1.12    0.00000     0.00  LINEAR    5.24908E-01    46.38    0.00000E+00     0.00
  -75.00   345.00       0.87 -999.99    0.87    0.00000     0.00  LINEAR    5.10220E-01    29.75    0.00000E+00     0.00
  -70.00   345.00       0.53 -999.99    0.53    0.00000     0.00  LINEAR    4.90402E-01     6.67    0.00000E+00     0.00
  -65.00   345.00       0.09 -999.99    0.09    0.00000     0.00  LINEAR    4.66006E-01   -22.68    0.00000E+00     0.00
  -60.00   345.00      -0.46 -999.99   -0.46    0.00000     0.00  LINEAR    4.37515E-01   -58.04    0.00000E+00     0.00
  -55.00   345.00      -1.12 -999.99   -1.12    0.00000     0.00  LINEAR    4.05355E-01   -99.15    0.00000E+00     0.00
  -50.00   345.00      -1.91 -999.99   -1.91    0.00000     0.00  LINEAR    3.70093E-01  -145.74    0.00000E+00     0.00
  -45.00   345.00      -2.84 -999.99   -2.84    0.00000     0.00  LINEAR    3.32718E-01   162.46    0.00000E+00     0.00
  -40.00   345.00      -3.90 -999.99   -3.90    0.00000     0.00  LINEAR    2.94568E-01   105.78    0.00000E+00     0.00
  -35.00   345.00      -5.09 -999.99   -5.09    0.00000     0.00  LINEAR    2.56685E-01    44.75    0.00000E+00     0.00
  -30.00   345.00      -6.47 -999.99   -6.47    0.00000     0.00  LINEAR    2.19165E-01   -20.02    0.00000E+00     0.00
  -25.00   345.00      -8.10 -999.99   -8.10    0.00000     0.00  LINEAR    1.81500E-01   -87.97    0.00000E+00     0.00
  -20.00   345.00     -10.13 -999.99  -10.13    0.00000     0.00  LINEAR    1.43694E-01  -158.76    0.00000E+00     0.00
  -15.00   345.00     -12.73 -999.99  -12.73    0.00000     0.00  LINEAR    1.06530E-01   127.93    0.00000E+00     0.00
  -10.00   345.00     -16.32 -999.99  -16.32    0.00000     0.00  LINEAR    7.04774E-02    52.74    0.00000E+00     0.00
   -5.00   345.00     -22.37 -999.99  -22.37    0.00000     0.00  LINEAR    3.51038E-02   -23.45    0.00000E+00     0.00
    0.00   345.00    -999.99 -999.99 -999.99    0.00000     0.00            0.00000E+00     0.00    0.00000E+00     0.00
 -180.00   350.00    -999.99 -999.99 -999.99    0.00000     0.00            4.08476E-12    79.97    0.00000E+00     0.00
 -175.00   350.00     -22.38 -999.99  -22.38    0.00000     0.00  LINEAR    3.50713E-02   -48.66    0.00000E+00     0.00
 -170.00   350.00     -16.33 -999.99  -16.33    0.00000     0.00  LINEAR    7.03951E-02     2.37    0.00000E+00     0.00
 -165.00   350.00     -12.77 -999.99  -12.77    0.00000     0.00  LINEAR    1.06054E-01    52.73    0.00000E+00     0.00
 -160.00   350.00     -10.22 -999.99  -10.22    0.00000     0.00  LINEAR    1.42315E-01   102.00    0.00000E+00     0.00
 -155.00   350.00      -8.20 -999.99   -8.20    0.00000     0.00  LINEAR    1.79404E-01   149.71    0.00000E+00     0.00
 -150.00   350.00      -6.54 -999.99   -6.54    0.00000     0.00  LINEAR    2.17232E-01  -164.58    0.00000E+00     0.00
 -145.00   350.00      -5.14 -999.99   -5.14    0.00000     0.00  LINEAR    2.55360E-01  -121.20    0.00000E+00     0.00
 -140.00   350.00      -3.94 -999.99   -3.94    0.00000     0.00  LINEAR    2.93173E-01   -80.46    0.00000E+00     0.00
 -135.00   350.00      -2.91 -999.99   -2.91    0.00000     0.00  LINEAR    3.30088E-01   -42.59    0.00000E+00     0.00
 -130.00   350.00      -2.02 -999.99   -2.02    0.00000     0.00  LINEAR    3.65625E-01    -7.85    0.00000E+00     0.00
 -125.00   350.00      -1.25 -999.99   -1.25    0.00000     0.00  LINEAR    3.99336E-01    23.50    0.00000E+00     0.00
 -120.00   350.00      -0.60 -999.99   -0.60    0.00000     0.00  LINEAR    4.30692E-01    51.20    0.00000E+00     0.00
 -115.00   350.00      -0.04 -999.99   -0.04    0.00000     0.00  LINEAR    4.59040E-01    75.02    0.00000E+00     0.00
 -110.00   350.00       0.41 -999.99    0.41    0.00000     0.00  LINEAR    4.83632E-01    94.77    0.00000E+00     0.00
 -105.00   350.00       0.76 -999.99    0.76    0.00000     0.00  LINEAR    5.03706E-01   110.29    0.00000E+00     0.00
 -100.00   350.00       1.02 -999.99    1.02    0.00000     0.00  LINEAR    5.18582E-01   121.45    0.00000E+00     0.00
  -95.00   350.00       1.17 -999.99    1.17    0.00000     0.00  LINEAR    5.27730E-01   128.18    0.00000E+00     0.00
  -90.00   350.00       1.22 -999.99    1.22    0.00000     0.00  LINEAR    5.30817E-01   130.43    0.00000E+00     0.00
  -85.00   350.00       1.17 -999.99    1.17    0.00000     0.00  LINEAR    5.27730E-01   128.18    0.00000E+00     0.00
  -80.00   350.00       1.02 -999.99    1.02    0.00000     0.00  LINEAR    5.18582E-01   121.45    0.00000E+00     0.00
  -75.00   350.00       0.76 -999.99    0.76    0.00000     0.00  LINEAR    5.03706E-01   110.29    0.00000E+00     0.00
  -70.00   350.00       0.41 -999.99    0.41    0.00000     0.00  LINEAR    4.83632E-01    94.77    0.00000E+00     0.00
  -65.00   350.00      -0.04 -999.99   -0.04    0.00000     0.00  LINEAR    4.59040E-01    75.02    0.00000E+00     0.00
  -60.00   350.00      -0.60 -999.99   -0.60    0.00000     0.00  LINEAR    4.30692E-01    51.20    0.00000E+00     0.00
  -55.00   350.00      -1.25 -999.99   -1.25    0.00000     0.00  LINEAR    3.99336E-01    23.50    0.00000E+00     0.00
  -50.00   350.00      -2.02 -999.99   -2.02    0.00000     0.00  LINEAR    3.65625E-01    -7.85    0.00000E+00     0.00
  -45.00   350.00      -2.91 -999.99   -2.91    0.00000     0.00  LINEAR    3.30088E-01   -42.59    0.00000E+00     0.00
  -40.00   350.00      -3.94 -999.99   -3.94    0.00000     0.00  LINEAR    2.93173E-01   -80.46    0.00000E+00     0.00
  -35.00   350.00      -5.14 -999.99   -5.14    0.00000     0.00  LINEAR    2.55360E-01  -121.20    0.00000E+00     0.00
  -30.00   350.00      -6.54 -999.99   -6.54    0.00000     0.00  LINEAR    2.17232E-01  -164.58    0.00000E+00     0.00
  -25.00   350.00      -8.20 -999.99   -8.20    0.00000     0.00  LINEAR    1.79404E-01   149.71    0.00000E+00     0.00
  -20.00   350.00     -10.22 -999.99  -10.22    0.00000     0.00  LINEAR    1.42315E-01   102.00    0.00000E+00     0.00
  -15.00   350.00     -12.77 -999.99  -12.77    0.00000     0.00  LINEAR    1.06054E-01    52.73    0.00000E+00     0.00
  -10.00   350.00     -16.33 -999.99  -16.33    0.00000     0.00  LINEAR    7.03951E-02     2.37    0.00000E+00     0.00
   -5.00   350.00     -22.38 -999.99  -22.38    0.00000     0.00  LINEAR    3.50713E-02   -48.66    0.00000E+00     0.00
    0.00   350.00    -999.99 -999.99 -999.99    0.00000     0.00            0.00000E+00     0.00    0.00000E+00     0.00
 -180.00   355.00    -999.99 -999.99 -999.99    0.00000     0.00            4.08476E-12    79.97    0.00000E+00     0.00
 -175.00   355.00     -22.39 -999.99  -22.39    0.00000     0.00  LINEAR    3.50206E-02   -74.25    0.00000E+00     0.00
 -170.00   355.00     -16.34 -999.99  -16.34    0.00000     0.00  LINEAR    7.02865E-02   -48.67    0.00000E+00     0.00
 -165.00   355.00     -12.79 -999.99  -12.79    0.00000     0.00  LINEAR    1.05864E-01   -23.47    0.00000E+00     0.00
 -160.00   355.00     -10.25 -999.99  -10.25    0.00000     0.00  LINEAR    1.41799E-01     1.17    0.00000E+00     0.00
 -155.00   355.00      -8.27 -999.99   -8.27    0.00000     0.00  LINEAR    1.78102E-01    25.06    0.00000E+00     0.00
 -150.00   355.00      -6.64 -999.99   -6.64    0.00000     0.00  LINEAR    2.14723E-01    48.01    0.00000E+00     0.00
 -145.00   355.00      -5.27 -999.99   -5.27    0.00000     0.00  LINEAR    2.51525E-01    69.85    0.00000E+00     0.00
 -140.00   355.00      -4.09 -999.99   -4.09    0.00000     0.00  LINEAR    2.88250E-01    90.40    0.00000E+00     0.00
 -135.00   355.00      -3.06 -999.99   -3.06    0.00000     0.00  LINEAR    3.24512E-01   109.50    0.00000E+00     0.00
 -130.00   355.00      -2.16 -999.99   -2.16    0.00000     0.00  LINEAR    3.59789E-01   127.00    0.00000E+00     0.00
 -125.00   355.00      -1.38 -999.99   -1.38    0.00000     0.00  LINEAR    3.93444E-01   142.75    0.00000E+00     0.00
 -120.00   355.00      -0.72 -999.99   -0.72    0.00000     0.00  LINEAR    4.24754E-01   156.65    0.00000E+00     0.00
 -115.00   355.00      -0.16 -999.99   -0.16    0.00000     0.00  LINEAR    4.52955E-01   168.59    0.00000E+00     0.00
 -110.00   355.00       0.29 -999.99    0.29    0.00000     0.00  LINEAR    4.77288E-01   178.48    0.00000E+00     0.00
 -105.00   355.00       0.65 -999.99    0.65    0.00000     0.00  LINEAR    4.97049E-01  -173.76    0.00000E+00     0.00
 -100.00   355.00       0.90 -999.99    0.90    0.00000     0.00  LINEAR    5.11634E-01  -168.17    0.00000E+00     0.00
  -95.00   355.00       1.05 -999.99    1.05    0.00000     0.00  LINEAR    5.20579E-01  -164.80    0.00000E+00     0.00
  -90.00   355.00       1.10 -999.99    1.10    0.00000     0.00  LINEAR    5.23594E-01  -163.68    0.00000E+00     0.00
  -85.00   355.00       1.05 -999.99    1.05    0.00000     0.00  LINEAR    5.20579E-01  -164.80    0.00000E+00     0.00
  -80.00   355.00       0.90 -999.99    0.90    0.00000     0.00  LINEAR    5.11634E-01  -168.17    0.00000E+00     0.00
  -75.00   355.00       0.65 -999.99    0.65    0.00000     0.00  LINEAR    4.97049E-01  -173.76    0.00000E+00     0.00
  -70.00   355.00       0.29 -999.99    0.29    0.00000     0.00  LINEAR    4.77288E-01   178.48    0.00000E+00     0.00
  -65.00   355.00      -0.16 -999.99   -0.16    0.00000     0.00  LINEAR    4.52955E-01   168.59    0.00000E+00     0.00
  -60.00   355.00      -0.72 -999.99   -0.72    0.00000     0.00  LINEAR    4.24754E-01   156.65    0.00000E+00     0.00
  -55.00   355.00      -1.38 -999.99   -1.38    0.00000     0.00  LINEAR    3.93444E-01   142.75    0.00000E+00     0.00
  -50.00   355.00      -2.16 -999.99   -2.16    0.00000     0.00  LINEAR    3.59789E-01   127.00    0.00000E+00     0.00
  -45.00   355.00      -3.06 -999.99   -3.06    0.00000     0.00  LINEAR    3.24512E-01   109.50    0.00000E+00     0.00
  -40.00   355.00      -4.09 -999.99   -4.09    0.00000     0.00  LINEAR    2.88250E-01    90.40    0.00000E+00     0.00
  -35.00   355.00      -5.27 -999.99   -5.27    0.00000     0.00  LINEAR    2.51525E-01    69.85    0.00000E+00     0.00
  -30.00   355.00      -6.64 -999.99   -6.64    0.00000     0.00  LINEAR    2.14723E-01    48.01    0.00000E+00     0.00
  -25.00   355.00      -8.27 -999.99   -8.27    0.00000     0.00  LINEAR    1.78102E-01    25.06    0.00000E+00     0.00
  -20.00   355.00     -10.25 -999.99  -10.25    0.00000     0.00  LINEAR    1.41799E-01     1.17    0.00000E+00     0.00
  -15.00   355.00     -12.79 -999.99  -12.79    0.00000     0.00  LINEAR    1.05864E-01   -23.47    0.00000E+00     0.00
  -10.00   355.00     -16.34 -999.99  -16.34    0.00000     0.00  LINEAR    7.02865E-02   -48.67    0.00000E+00     0.00
   -5.00   355.00     -22.39 -999.99  -22.39    0.00000     0.00  LINEAR    3.50206E-02   -74.25    0.00000E+00     0.00
    0.00   355.00    -999.99 -999.99 -999.99    0.00000     0.00            0.00000E+00     0.00    0.00000E+00     0.00
 -180.00   360.00    -999.99 -999.99 -999.99    0.00000     0.00            4.08476E-12    79.97    0.00000E+00     0.00
 -175.00   360.00     -22.41 -999.99  -22.41    0.00000     0.00  LINEAR    3.49486E-02  -100.03    0.00000E+00     0.00
 -170.00   360.00     -16.37 -999.99  -16.37    0.00000     0.00  LINEAR    7.00405E-02  -100.04    0.00000E+00     0.00
 -165.00   360.00     -12.82 -999.99  -12.82    0.00000     0.00  LINEAR    1.05395E-01  -100.06    0.00000E+00     0.00
 -160.00   360.00     -10.29 -999.99  -10.29    0.00000     0.00  LINEAR    1.41087E-01  -100.07    0.00000E+00     0.00
 -155.00   360.00      -8.32 -999.99   -8.32    0.00000     0.00  LINEAR    1.77120E-01  -100.10    0.00000E+00     0.00
 -150.00   360.00      -6.70 -999.99   -6.70    0.00000     0.00  LINEAR    2.13415E-01  -100.12    0.00000E+00     0.00
 -145.00   360.00      -5.33 -999.99   -5.33    0.00000     0.00  LINEAR    2.49791E-01  -100.15    0.00000E+00     0.00
 -140.00   360.00      -4.15 -999.99   -4.15    0.00000     0.00  LINEAR    2.85958E-01  -100.18    0.00000E+00     0.00
 -135.00   360.00      -3.14 -999.99   -3.14    0.00000     0.00  LINEAR    3.21513E-01  -100.20    0.00000E+00     0.00
 -130.00   360.00      -2.25 -999.99   -2.25    0.00000     0.00  LINEAR    3.55948E-01  -100.23    0.00000E+00     0.00
 -125.00   360.00      -1.49 -999.99   -1.49    0.00000     0.00  LINEAR    3.88665E-01  -100.26    0.00000E+00     0.00
 -120.00   360.00      -0.84 -999.99   -0.84    0.00000     0.00  LINEAR    4.18996E-01  -100.28    0.00000E+00     0.00
 -115.00   360.00      -0.29 -999.99   -0.29    0.00000     0.00  LINEAR    4.46241E-01  -100.30    0.00000E+00     0.00
 -110.00   360.00       0.16 -999.99    0.16    0.00000     0.00  LINEAR    4.69701E-01  -100.32    0.00000E+00     0.00
 -105.00   360.00       0.50 -999.99    0.50    0.00000     0.00  LINEAR    4.88727E-01  -100.34    0.00000E+00     0.00
 -100.00   360.00       0.75 -999.99    0.75    0.00000     0.00  LINEAR    5.02757E-01  -100.35    0.00000E+00     0.00
  -95.00   360.00       0.89 -999.99    0.89    0.00000     0.00  LINEAR    5.11358E-01  -100.35    0.00000E+00     0.00
  -90.00   360.00       0.94 -999.99    0.94    0.00000     0.00  LINEAR    5.14256E-01  -100.36    0.00000E+00     0.00
  -85.00   360.00       0.89 -999.99    0.89    0.00000     0.00  LINEAR    5.11358E-01  -100.35    0.00000E+00     0.00
  -80.00   360.00       0.75 -999.99    0.75    0.00000     0.00  LINEAR    5.02757E-01  -100.35    0.00000E+00     0.00
  -75.00   360.00       0.50 -999.99    0.50    0.00000     0.00  LINEAR    4.88727E-01  -100.34    0.00000E+00     0.00
  -70.00   360.00       0.16 -999.99    0.16    0.00000     0.00  LINEAR    4.69701E-01  -100.32    0.00000E+00     0.00
  -65.00   360.00      -0.29 -999.99   -0.29    0.00000     0.00  LINEAR    4.46241E-01  -100.30    0.00000E+00     0.00
  -60.00   360.00      -0.84 -999.99   -0.84    0.00000     0.00  LINEAR    4.18996E-01  -100.28    0.00000E+00     0.00
  -55.00   360.00      -1.49 -999.99   -1.49    0.00000     0.00  LINEAR    3.88665E-01  -100.26    0.00000E+00     0.00
  -50.00   360.00      -2.25 -999.99   -2.25    0.00000     0.00  LINEAR    3.55948E-01  -100.23    0.00000E+00     0.00
  -45.00   360.00      -3.14 -999.99   -3.14    0.00000     0.00  LINEAR    3.21513E-01  -100.20    0.00000E+00     0.00
  -40.00   360.00      -4.15 -999.99   -4.15    0.00000     0.00  LINEAR    2.85958E-01  -100.18    0.00000E+00     0.00
  -35.00   360.00      -5.33 -999.99   -5.33    0.00000     0.00  LINEAR    2.49791E-01  -100.15    0.00000E+00     0.00
  -30.00   360.00      -6.70 -999.99   -6.70    0.00000     0.00  LINEAR    2.13415E-01  -100.12    0.00000E+00     0.00
  -25.00   360.00      -8.32 -999.99   -8.32    0.00000     0.00  LINEAR    1.77120E-01  -100.10    0.00000E+00     0.00
  -20.00   360.00     -10.29 -999.99  -10.29    0.00000     0.00  LINEAR    1.41087E-01  -100.07    0.00000E+00     0.00
  -15.00   360.00     -12.82 -999.99  -12.82    0.00000     0.00  LINEAR    1.05395E-01  -100.06    0.00000E+00     0.00
  -10.00   360.00     -16.37 -999.99  -16.37    0.00000     0.00  LINEAR    7.00405E-02  -100.04    0.00000E+00     0.00
   -5.00   360.00     -22.41 -999.99  -22.41    0.00000     0.00  LINEAR    3.49486E-02  -100.03    0.00000E+00     0.00
    0.00   360.00    -999.99 -999.99 -999.99    0.00000     0.00            0.00000E+00     0.00    0.00000E+00     0.00


   AVERAGE POWER GAIN= 5.95235E-01       SOLID ANGLE USED IN AVERAGING=( 4.0000)*PI STERADIANS.








 ***** DATA CARD NO. 26   EN   0    37    73  1003 -1.80000E+02  0.00000E+00  5.00000E+00  5.00000E+00  0.00000E+00  0.00000E+00

 RUN TIME =     0.344
