1



                                 *********************************************

                                    NUMERICAL ELECTROMAGNETICS CODE (NEC-2D)

                                 *********************************************




                                     - - - - COMMENTS - - - -


                                                                                                     
                          forw:-999, 0 ; back: 0, 0                                                  
                                                                                                     




                                 - - - STRUCTURE SPECIFICATION - - -

                                     COORDINATES MUST BE INPUT IN
                                     METERS OR BE SCALED TO METERS
                                     BEFORE STRUCTURE INPUT IS ENDED


  WIRE                                                                               NO. OF    FIRST  LAST     TAG
  NO.        X1         Y1         Z1          X2         Y2         Z2      RADIUS   SEG.     SEG.   SEG.     NO.
     1    0.00000    0.00000   -0.17430     0.00000    0.00000    0.17430    0.00010      9        1     9       1
     2    0.00000    0.34860   -0.17430     0.00000    0.34860    0.17430    0.00010      9       10    18       2
     3    0.00000    0.69719   -0.17430     0.00000    0.69719    0.17430    0.00010      9       19    27       3
     4    0.00000    1.04579   -0.17430     0.00000    1.04579    0.17430    0.00010      9       28    36       4
     5    0.00000    1.39438   -0.17430     0.00000    1.39438    0.17430    0.00010      9       37    45       5
     6    0.00000    1.74298   -0.17430     0.00000    1.74298    0.17430    0.00010      9       46    54       6
     7    0.00000    2.09158   -0.17430     0.00000    2.09158    0.17430    0.00010      9       55    63       7
     8    0.00000    2.44017   -0.17430     0.00000    2.44017    0.17430    0.00010      9       64    72       8
     9    0.00000    2.78877   -0.17430     0.00000    2.78877    0.17430    0.00010      9       73    81       9
    10    0.00000    3.13736   -0.17430     0.00000    3.13736    0.17430    0.00010      9       82    90      10
    11    0.00000    3.48596   -0.17430     0.00000    3.48596    0.17430    0.00010      9       91    99      11
    12    0.00000    3.83455   -0.17430     0.00000    3.83455    0.17430    0.00010      9      100   108      12
    13    0.00000    4.18315   -0.17430     0.00000    4.18315    0.17430    0.00010      9      109   117      13
    14    0.00000    4.53175   -0.17430     0.00000    4.53175    0.17430    0.00010      9      118   126      14
    15    0.00000    4.88034   -0.17430     0.00000    4.88034    0.17430    0.00010      9      127   135      15
    16    0.00000    5.22894   -0.17430     0.00000    5.22894    0.17430    0.00010      9      136   144      16
    17    0.00000    5.57753   -0.17430     0.00000    5.57753    0.17430    0.00010      9      145   153      17
    18    0.00000    5.92613   -0.17430     0.00000    5.92613    0.17430    0.00010      9      154   162      18
    19    0.00000    6.27473   -0.17430     0.00000    6.27473    0.17430    0.00010      9      163   171      19
    20    0.00000    6.62332   -0.17430     0.00000    6.62332    0.17430    0.00010      9      172   180      20

   TOTAL SEGMENTS USED=  180     NO. SEG. IN A SYMMETRIC CELL=  180     SYMMETRY FLAG=  0


         - MULTIPLE WIRE JUNCTIONS -
 JUNCTION    SEGMENTS  (- FOR END 1, + FOR END 2)
  NONE




                                 - - - - SEGMENTATION DATA - - - -

                                        COORDINATES IN METERS

                         I+ AND I- INDICATE THE SEGMENTS BEFORE AND AFTER I


  SEG.   COORDINATES OF SEG. CENTER     SEG.     ORIENTATION ANGLES    WIRE    CONNECTION DATA   TAG
  NO.       X         Y         Z       LENGTH     ALPHA     BETA      RADIUS    I-   I    I+    NO.
     1   0.00000   0.00000  -0.15493   0.03873   90.00000   0.00000   0.00010     0    1    2      1
     2   0.00000   0.00000  -0.11620   0.03873   90.00000   0.00000   0.00010     1    2    3      1
     3   0.00000   0.00000  -0.07747   0.03873   90.00000   0.00000   0.00010     2    3    4      1
     4   0.00000   0.00000  -0.03873   0.03873   90.00000   0.00000   0.00010     3    4    5      1
     5   0.00000   0.00000   0.00000   0.03873   90.00000   0.00000   0.00010     4    5    6      1
     6   0.00000   0.00000   0.03873   0.03873   90.00000   0.00000   0.00010     5    6    7      1
     7   0.00000   0.00000   0.07747   0.03873   90.00000   0.00000   0.00010     6    7    8      1
     8   0.00000   0.00000   0.11620   0.03873   90.00000   0.00000   0.00010     7    8    9      1
     9   0.00000   0.00000   0.15493   0.03873   90.00000   0.00000   0.00010     8    9    0      1
    10   0.00000   0.34860  -0.15493   0.03873   90.00000   0.00000   0.00010     0   10   11      2
    11   0.00000   0.34860  -0.11620   0.03873   90.00000   0.00000   0.00010    10   11   12      2
    12   0.00000   0.34860  -0.07747   0.03873   90.00000   0.00000   0.00010    11   12   13      2
    13   0.00000   0.34860  -0.03873   0.03873   90.00000   0.00000   0.00010    12   13   14      2
    14   0.00000   0.34860   0.00000   0.03873   90.00000   0.00000   0.00010    13   14   15      2
    15   0.00000   0.34860   0.03873   0.03873   90.00000   0.00000   0.00010    14   15   16      2
    16   0.00000   0.34860   0.07747   0.03873   90.00000   0.00000   0.00010    15   16   17      2
    17   0.00000   0.34860   0.11620   0.03873   90.00000   0.00000   0.00010    16   17   18      2
    18   0.00000   0.34860   0.15493   0.03873   90.00000   0.00000   0.00010    17   18    0      2
    19   0.00000   0.69719  -0.15493   0.03873   90.00000   0.00000   0.00010     0   19   20      3
    20   0.00000   0.69719  -0.11620   0.03873   90.00000   0.00000   0.00010    19   20   21      3
    21   0.00000   0.69719  -0.07747   0.03873   90.00000   0.00000   0.00010    20   21   22      3
    22   0.00000   0.69719  -0.03873   0.03873   90.00000   0.00000   0.00010    21   22   23      3
    23   0.00000   0.69719   0.00000   0.03873   90.00000   0.00000   0.00010    22   23   24      3
    24   0.00000   0.69719   0.03873   0.03873   90.00000   0.00000   0.00010    23   24   25      3
    25   0.00000   0.69719   0.07747   0.03873   90.00000   0.00000   0.00010    24   25   26      3
    26   0.00000   0.69719   0.11620   0.03873   90.00000   0.00000   0.00010    25   26   27      3
    27   0.00000   0.69719   0.15493   0.03873   90.00000   0.00000   0.00010    26   27    0      3
    28   0.00000   1.04579  -0.15493   0.03873   90.00000   0.00000   0.00010     0   28   29      4
    29   0.00000   1.04579  -0.11620   0.03873   90.00000   0.00000   0.00010    28   29   30      4
    30   0.00000   1.04579  -0.07747   0.03873   90.00000   0.00000   0.00010    29   30   31      4
    31   0.00000   1.04579  -0.03873   0.03873   90.00000   0.00000   0.00010    30   31   32      4
    32   0.00000   1.04579   0.00000   0.03873   90.00000   0.00000   0.00010    31   32   33      4
    33   0.00000   1.04579   0.03873   0.03873   90.00000   0.00000   0.00010    32   33   34      4
    34   0.00000   1.04579   0.07747   0.03873   90.00000   0.00000   0.00010    33   34   35      4
    35   0.00000   1.04579   0.11620   0.03873   90.00000   0.00000   0.00010    34   35   36      4
    36   0.00000   1.04579   0.15493   0.03873   90.00000   0.00000   0.00010    35   36    0      4
    37   0.00000   1.39438  -0.15493   0.03873   90.00000   0.00000   0.00010     0   37   38      5
    38   0.00000   1.39438  -0.11620   0.03873   90.00000   0.00000   0.00010    37   38   39      5
    39   0.00000   1.39438  -0.07747   0.03873   90.00000   0.00000   0.00010    38   39   40      5
    40   0.00000   1.39438  -0.03873   0.03873   90.00000   0.00000   0.00010    39   40   41      5
    41   0.00000   1.39438   0.00000   0.03873   90.00000   0.00000   0.00010    40   41   42      5
    42   0.00000   1.39438   0.03873   0.03873   90.00000   0.00000   0.00010    41   42   43      5
    43   0.00000   1.39438   0.07747   0.03873   90.00000   0.00000   0.00010    42   43   44      5
    44   0.00000   1.39438   0.11620   0.03873   90.00000   0.00000   0.00010    43   44   45      5
    45   0.00000   1.39438   0.15493   0.03873   90.00000   0.00000   0.00010    44   45    0      5
    46   0.00000   1.74298  -0.15493   0.03873   90.00000   0.00000   0.00010     0   46   47      6
    47   0.00000   1.74298  -0.11620   0.03873   90.00000   0.00000   0.00010    46   47   48      6
    48   0.00000   1.74298  -0.07747   0.03873   90.00000   0.00000   0.00010    47   48   49      6
    49   0.00000   1.74298  -0.03873   0.03873   90.00000   0.00000   0.00010    48   49   50      6
    50   0.00000   1.74298   0.00000   0.03873   90.00000   0.00000   0.00010    49   50   51      6
    51   0.00000   1.74298   0.03873   0.03873   90.00000   0.00000   0.00010    50   51   52      6
    52   0.00000   1.74298   0.07747   0.03873   90.00000   0.00000   0.00010    51   52   53      6
    53   0.00000   1.74298   0.11620   0.03873   90.00000   0.00000   0.00010    52   53   54      6
    54   0.00000   1.74298   0.15493   0.03873   90.00000   0.00000   0.00010    53   54    0      6
    55   0.00000   2.09158  -0.15493   0.03873   90.00000   0.00000   0.00010     0   55   56      7
    56   0.00000   2.09158  -0.11620   0.03873   90.00000   0.00000   0.00010    55   56   57      7
    57   0.00000   2.09158  -0.07747   0.03873   90.00000   0.00000   0.00010    56   57   58      7
    58   0.00000   2.09158  -0.03873   0.03873   90.00000   0.00000   0.00010    57   58   59      7
    59   0.00000   2.09158   0.00000   0.03873   90.00000   0.00000   0.00010    58   59   60      7
    60   0.00000   2.09158   0.03873   0.03873   90.00000   0.00000   0.00010    59   60   61      7
    61   0.00000   2.09158   0.07747   0.03873   90.00000   0.00000   0.00010    60   61   62      7
    62   0.00000   2.09158   0.11620   0.03873   90.00000   0.00000   0.00010    61   62   63      7
    63   0.00000   2.09158   0.15493   0.03873   90.00000   0.00000   0.00010    62   63    0      7
    64   0.00000   2.44017  -0.15493   0.03873   90.00000   0.00000   0.00010     0   64   65      8
    65   0.00000   2.44017  -0.11620   0.03873   90.00000   0.00000   0.00010    64   65   66      8
    66   0.00000   2.44017  -0.07747   0.03873   90.00000   0.00000   0.00010    65   66   67      8
    67   0.00000   2.44017  -0.03873   0.03873   90.00000   0.00000   0.00010    66   67   68      8
    68   0.00000   2.44017   0.00000   0.03873   90.00000   0.00000   0.00010    67   68   69      8
    69   0.00000   2.44017   0.03873   0.03873   90.00000   0.00000   0.00010    68   69   70      8
    70   0.00000   2.44017   0.07747   0.03873   90.00000   0.00000   0.00010    69   70   71      8
    71   0.00000   2.44017   0.11620   0.03873   90.00000   0.00000   0.00010    70   71   72      8
    72   0.00000   2.44017   0.15493   0.03873   90.00000   0.00000   0.00010    71   72    0      8
    73   0.00000   2.78877  -0.15493   0.03873   90.00000   0.00000   0.00010     0   73   74      9
    74   0.00000   2.78877  -0.11620   0.03873   90.00000   0.00000   0.00010    73   74   75      9
    75   0.00000   2.78877  -0.07747   0.03873   90.00000   0.00000   0.00010    74   75   76      9
    76   0.00000   2.78877  -0.03873   0.03873   90.00000   0.00000   0.00010    75   76   77      9
    77   0.00000   2.78877   0.00000   0.03873   90.00000   0.00000   0.00010    76   77   78      9
    78   0.00000   2.78877   0.03873   0.03873   90.00000   0.00000   0.00010    77   78   79      9
    79   0.00000   2.78877   0.07747   0.03873   90.00000   0.00000   0.00010    78   79   80      9
    80   0.00000   2.78877   0.11620   0.03873   90.00000   0.00000   0.00010    79   80   81      9
    81   0.00000   2.78877   0.15493   0.03873   90.00000   0.00000   0.00010    80   81    0      9
    82   0.00000   3.13736  -0.15493   0.03873   90.00000   0.00000   0.00010     0   82   83     10
    83   0.00000   3.13736  -0.11620   0.03873   90.00000   0.00000   0.00010    82   83   84     10
    84   0.00000   3.13736  -0.07747   0.03873   90.00000   0.00000   0.00010    83   84   85     10
    85   0.00000   3.13736  -0.03873   0.03873   90.00000   0.00000   0.00010    84   85   86     10
    86   0.00000   3.13736   0.00000   0.03873   90.00000   0.00000   0.00010    85   86   87     10
    87   0.00000   3.13736   0.03873   0.03873   90.00000   0.00000   0.00010    86   87   88     10
    88   0.00000   3.13736   0.07747   0.03873   90.00000   0.00000   0.00010    87   88   89     10
    89   0.00000   3.13736   0.11620   0.03873   90.00000   0.00000   0.00010    88   89   90     10
    90   0.00000   3.13736   0.15493   0.03873   90.00000   0.00000   0.00010    89   90    0     10
    91   0.00000   3.48596  -0.15493   0.03873   90.00000   0.00000   0.00010     0   91   92     11
    92   0.00000   3.48596  -0.11620   0.03873   90.00000   0.00000   0.00010    91   92   93     11
    93   0.00000   3.48596  -0.07747   0.03873   90.00000   0.00000   0.00010    92   93   94     11
    94   0.00000   3.48596  -0.03873   0.03873   90.00000   0.00000   0.00010    93   94   95     11
    95   0.00000   3.48596   0.00000   0.03873   90.00000   0.00000   0.00010    94   95   96     11
    96   0.00000   3.48596   0.03873   0.03873   90.00000   0.00000   0.00010    95   96   97     11
    97   0.00000   3.48596   0.07747   0.03873   90.00000   0.00000   0.00010    96   97   98     11
    98   0.00000   3.48596   0.11620   0.03873   90.00000   0.00000   0.00010    97   98   99     11
    99   0.00000   3.48596   0.15493   0.03873   90.00000   0.00000   0.00010    98   99    0     11
   100   0.00000   3.83455  -0.15493   0.03873   90.00000   0.00000   0.00010     0  100  101     12
   101   0.00000   3.83455  -0.11620   0.03873   90.00000   0.00000   0.00010   100  101  102     12
   102   0.00000   3.83455  -0.07747   0.03873   90.00000   0.00000   0.00010   101  102  103     12
   103   0.00000   3.83455  -0.03873   0.03873   90.00000   0.00000   0.00010   102  103  104     12
   104   0.00000   3.83455   0.00000   0.03873   90.00000   0.00000   0.00010   103  104  105     12
   105   0.00000   3.83455   0.03873   0.03873   90.00000   0.00000   0.00010   104  105  106     12
   106   0.00000   3.83455   0.07747   0.03873   90.00000   0.00000   0.00010   105  106  107     12
   107   0.00000   3.83455   0.11620   0.03873   90.00000   0.00000   0.00010   106  107  108     12
   108   0.00000   3.83455   0.15493   0.03873   90.00000   0.00000   0.00010   107  108    0     12
   109   0.00000   4.18315  -0.15493   0.03873   90.00000   0.00000   0.00010     0  109  110     13
   110   0.00000   4.18315  -0.11620   0.03873   90.00000   0.00000   0.00010   109  110  111     13
   111   0.00000   4.18315  -0.07747   0.03873   90.00000   0.00000   0.00010   110  111  112     13
   112   0.00000   4.18315  -0.03873   0.03873   90.00000   0.00000   0.00010   111  112  113     13
   113   0.00000   4.18315   0.00000   0.03873   90.00000   0.00000   0.00010   112  113  114     13
   114   0.00000   4.18315   0.03873   0.03873   90.00000   0.00000   0.00010   113  114  115     13
   115   0.00000   4.18315   0.07747   0.03873   90.00000   0.00000   0.00010   114  115  116     13
   116   0.00000   4.18315   0.11620   0.03873   90.00000   0.00000   0.00010   115  116  117     13
   117   0.00000   4.18315   0.15493   0.03873   90.00000   0.00000   0.00010   116  117    0     13
   118   0.00000   4.53175  -0.15493   0.03873   90.00000   0.00000   0.00010     0  118  119     14
   119   0.00000   4.53175  -0.11620   0.03873   90.00000   0.00000   0.00010   118  119  120     14
   120   0.00000   4.53175  -0.07747   0.03873   90.00000   0.00000   0.00010   119  120  121     14
   121   0.00000   4.53175  -0.03873   0.03873   90.00000   0.00000   0.00010   120  121  122     14
   122   0.00000   4.53175   0.00000   0.03873   90.00000   0.00000   0.00010   121  122  123     14
   123   0.00000   4.53175   0.03873   0.03873   90.00000   0.00000   0.00010   122  123  124     14
   124   0.00000   4.53175   0.07747   0.03873   90.00000   0.00000   0.00010   123  124  125     14
   125   0.00000   4.53175   0.11620   0.03873   90.00000   0.00000   0.00010   124  125  126     14
   126   0.00000   4.53175   0.15493   0.03873   90.00000   0.00000   0.00010   125  126    0     14
   127   0.00000   4.88034  -0.15493   0.03873   90.00000   0.00000   0.00010     0  127  128     15
   128   0.00000   4.88034  -0.11620   0.03873   90.00000   0.00000   0.00010   127  128  129     15
   129   0.00000   4.88034  -0.07747   0.03873   90.00000   0.00000   0.00010   128  129  130     15
   130   0.00000   4.88034  -0.03873   0.03873   90.00000   0.00000   0.00010   129  130  131     15
   131   0.00000   4.88034   0.00000   0.03873   90.00000   0.00000   0.00010   130  131  132     15
   132   0.00000   4.88034   0.03873   0.03873   90.00000   0.00000   0.00010   131  132  133     15
   133   0.00000   4.88034   0.07747   0.03873   90.00000   0.00000   0.00010   132  133  134     15
   134   0.00000   4.88034   0.11620   0.03873   90.00000   0.00000   0.00010   133  134  135     15
   135   0.00000   4.88034   0.15493   0.03873   90.00000   0.00000   0.00010   134  135    0     15
   136   0.00000   5.22894  -0.15493   0.03873   90.00000   0.00000   0.00010     0  136  137     16
   137   0.00000   5.22894  -0.11620   0.03873   90.00000   0.00000   0.00010   136  137  138     16
   138   0.00000   5.22894  -0.07747   0.03873   90.00000   0.00000   0.00010   137  138  139     16
   139   0.00000   5.22894  -0.03873   0.03873   90.00000   0.00000   0.00010   138  139  140     16
   140   0.00000   5.22894   0.00000   0.03873   90.00000   0.00000   0.00010   139  140  141     16
   141   0.00000   5.22894   0.03873   0.03873   90.00000   0.00000   0.00010   140  141  142     16
   142   0.00000   5.22894   0.07747   0.03873   90.00000   0.00000   0.00010   141  142  143     16
   143   0.00000   5.22894   0.11620   0.03873   90.00000   0.00000   0.00010   142  143  144     16
   144   0.00000   5.22894   0.15493   0.03873   90.00000   0.00000   0.00010   143  144    0     16
   145   0.00000   5.57753  -0.15493   0.03873   90.00000   0.00000   0.00010     0  145  146     17
   146   0.00000   5.57753  -0.11620   0.03873   90.00000   0.00000   0.00010   145  146  147     17
   147   0.00000   5.57753  -0.07747   0.03873   90.00000   0.00000   0.00010   146  147  148     17
   148   0.00000   5.57753  -0.03873   0.03873   90.00000   0.00000   0.00010   147  148  149     17
   149   0.00000   5.57753   0.00000   0.03873   90.00000   0.00000   0.00010   148  149  150     17
   150   0.00000   5.57753   0.03873   0.03873   90.00000   0.00000   0.00010   149  150  151     17
   151   0.00000   5.57753   0.07747   0.03873   90.00000   0.00000   0.00010   150  151  152     17
   152   0.00000   5.57753   0.11620   0.03873   90.00000   0.00000   0.00010   151  152  153     17
   153   0.00000   5.57753   0.15493   0.03873   90.00000   0.00000   0.00010   152  153    0     17
   154   0.00000   5.92613  -0.15493   0.03873   90.00000   0.00000   0.00010     0  154  155     18
   155   0.00000   5.92613  -0.11620   0.03873   90.00000   0.00000   0.00010   154  155  156     18
   156   0.00000   5.92613  -0.07747   0.03873   90.00000   0.00000   0.00010   155  156  157     18
   157   0.00000   5.92613  -0.03873   0.03873   90.00000   0.00000   0.00010   156  157  158     18
   158   0.00000   5.92613   0.00000   0.03873   90.00000   0.00000   0.00010   157  158  159     18
   159   0.00000   5.92613   0.03873   0.03873   90.00000   0.00000   0.00010   158  159  160     18
   160   0.00000   5.92613   0.07747   0.03873   90.00000   0.00000   0.00010   159  160  161     18
   161   0.00000   5.92613   0.11620   0.03873   90.00000   0.00000   0.00010   160  161  162     18
   162   0.00000   5.92613   0.15493   0.03873   90.00000   0.00000   0.00010   161  162    0     18
   163   0.00000   6.27473  -0.15493   0.03873   90.00000   0.00000   0.00010     0  163  164     19
   164   0.00000   6.27473  -0.11620   0.03873   90.00000   0.00000   0.00010   163  164  165     19
   165   0.00000   6.27473  -0.07747   0.03873   90.00000   0.00000   0.00010   164  165  166     19
   166   0.00000   6.27473  -0.03873   0.03873   90.00000   0.00000   0.00010   165  166  167     19
   167   0.00000   6.27473   0.00000   0.03873   90.00000   0.00000   0.00010   166  167  168     19
   168   0.00000   6.27473   0.03873   0.03873   90.00000   0.00000   0.00010   167  168  169     19
   169   0.00000   6.27473   0.07747   0.03873   90.00000   0.00000   0.00010   168  169  170     19
   170   0.00000   6.27473   0.11620   0.03873   90.00000   0.00000   0.00010   169  170  171     19
   171   0.00000   6.27473   0.15493   0.03873   90.00000   0.00000   0.00010   170  171    0     19
   172   0.00000   6.62332  -0.15493   0.03873   90.00000   0.00000   0.00010     0  172  173     20
   173   0.00000   6.62332  -0.11620   0.03873   90.00000   0.00000   0.00010   172  173  174     20
   174   0.00000   6.62332  -0.07747   0.03873   90.00000   0.00000   0.00010   173  174  175     20
   175   0.00000   6.62332  -0.03873   0.03873   90.00000   0.00000   0.00010   174  175  176     20
   176   0.00000   6.62332   0.00000   0.03873   90.00000   0.00000   0.00010   175  176  177     20
   177   0.00000   6.62332   0.03873   0.03873   90.00000   0.00000   0.00010   176  177  178     20
   178   0.00000   6.62332   0.07747   0.03873   90.00000   0.00000   0.00010   177  178  179     20
   179   0.00000   6.62332   0.11620   0.03873   90.00000   0.00000   0.00010   178  179  180     20
   180   0.00000   6.62332   0.15493   0.03873   90.00000   0.00000   0.00010   179  180    0     20






 ***** DATA CARD NO.  1   LD   4     1     5     5  5.00000E+01  0.00000E+00  0.00000E+00  0.00000E+00  0.00000E+00  0.00000E+00
 ***** DATA CARD NO.  2   LD   4     2     5     5  5.00000E+01  0.00000E+00  0.00000E+00  0.00000E+00  0.00000E+00  0.00000E+00
 ***** DATA CARD NO.  3   LD   4     3     5     5  5.00000E+01  0.00000E+00  0.00000E+00  0.00000E+00  0.00000E+00  0.00000E+00
 ***** DATA CARD NO.  4   LD   4     4     5     5  5.00000E+01  0.00000E+00  0.00000E+00  0.00000E+00  0.00000E+00  0.00000E+00
 ***** DATA CARD NO.  5   LD   4     5     5     5  5.00000E+01  0.00000E+00  0.00000E+00  0.00000E+00  0.00000E+00  0.00000E+00
 ***** DATA CARD NO.  6   LD   4     6     5     5  5.00000E+01  0.00000E+00  0.00000E+00  0.00000E+00  0.00000E+00  0.00000E+00
 ***** DATA CARD NO.  7   LD   4     7     5     5  5.00000E+01  0.00000E+00  0.00000E+00  0.00000E+00  0.00000E+00  0.00000E+00
 ***** DATA CARD NO.  8   LD   4     8     5     5  5.00000E+01  0.00000E+00  0.00000E+00  0.00000E+00  0.00000E+00  0.00000E+00
 ***** DATA CARD NO.  9   LD   4     9     5     5  5.00000E+01  0.00000E+00  0.00000E+00  0.00000E+00  0.00000E+00  0.00000E+00
 ***** DATA CARD NO. 10   LD   4    10     5     5  5.00000E+01  0.00000E+00  0.00000E+00  0.00000E+00  0.00000E+00  0.00000E+00
 ***** DATA CARD NO. 11   LD   4    11     5     5  5.00000E+01  0.00000E+00  0.00000E+00  0.00000E+00  0.00000E+00  0.00000E+00
 ***** DATA CARD NO. 12   LD   4    12     5     5  5.00000E+01  0.00000E+00  0.00000E+00  0.00000E+00  0.00000E+00  0.00000E+00
 ***** DATA CARD NO. 13   LD   4    13     5     5  5.00000E+01  0.00000E+00  0.00000E+00  0.00000E+00  0.00000E+00  0.00000E+00
 ***** DATA CARD NO. 14   LD   4    14     5     5  5.00000E+01  0.00000E+00  0.00000E+00  0.00000E+00  0.00000E+00  0.00000E+00
 ***** DATA CARD NO. 15   LD   4    15     5     5  5.00000E+01  0.00000E+00  0.00000E+00  0.00000E+00  0.00000E+00  0.00000E+00
 ***** DATA CARD NO. 16   LD   4    16     5     5  5.00000E+01  0.00000E+00  0.00000E+00  0.00000E+00  0.00000E+00  0.00000E+00
 ***** DATA CARD NO. 17   LD   4    17     5     5  5.00000E+01  0.00000E+00  0.00000E+00  0.00000E+00  0.00000E+00  0.00000E+00
 ***** DATA CARD NO. 18   LD   4    18     5     5  5.00000E+01  0.00000E+00  0.00000E+00  0.00000E+00  0.00000E+00  0.00000E+00
 ***** DATA CARD NO. 19   LD   4    19     5     5  5.00000E+01  0.00000E+00  0.00000E+00  0.00000E+00  0.00000E+00  0.00000E+00
 ***** DATA CARD NO. 20   LD   4    20     5     5  5.00000E+01  0.00000E+00  0.00000E+00  0.00000E+00  0.00000E+00  0.00000E+00
 ***** DATA CARD NO. 21   GN  -1     0     0     0  0.00000E+00  0.00000E+00  0.00000E+00  0.00000E+00  0.00000E+00  0.00000E+00
 ***** DATA CARD NO. 22   EK   0     0     0     0  0.00000E+00  0.00000E+00  0.00000E+00  0.00000E+00  0.00000E+00  0.00000E+00
 ***** DATA CARD NO. 23   EX   0     3     5     0  1.00000E+00  0.00000E+00  0.00000E+00  0.00000E+00  0.00000E+00  0.00000E+00
 ***** DATA CARD NO. 24   FR   0     0     0     0  4.30000E+02  0.00000E+00  0.00000E+00  0.00000E+00  0.00000E+00  0.00000E+00
 ***** DATA CARD NO. 25   RP   0    37    73  1003 -1.80000E+02  0.00000E+00  5.00000E+00  5.00000E+00  0.00000E+00  0.00000E+00




                                 - - - - - - FREQUENCY - - - - - -

                                    FREQUENCY= 4.3000E+02 MHZ
                                    WAVELENGTH= 6.9721E-01 METERS




                    APPROXIMATE INTEGRATION EMPLOYED FOR SEGMENTS MORE THAN   1.000 WAVELENGTHS APART

                    THE EXTENDED THIN WIRE KERNEL WILL BE USED



                               - - - STRUCTURE IMPEDANCE LOADING - - -


       LOCATION          RESISTANCE   INDUCTANCE  CAPACITANCE       IMPEDANCE (OHMS)     CONDUCTIVITY    TYPE
    ITAG FROM THRU          OHMS        HENRYS       FARADS        REAL      IMAGINARY    MHOS/METER

       1    5    5                                             5.0000E+01                             FIXED IMPEDANCE 

       2    5    5                                             5.0000E+01                             FIXED IMPEDANCE 

       3    5    5                                             5.0000E+01                             FIXED IMPEDANCE 

       4    5    5                                             5.0000E+01                             FIXED IMPEDANCE 

       5    5    5                                             5.0000E+01                             FIXED IMPEDANCE 

       6    5    5                                             5.0000E+01                             FIXED IMPEDANCE 

       7    5    5                                             5.0000E+01                             FIXED IMPEDANCE 

       8    5    5                                             5.0000E+01                             FIXED IMPEDANCE 

       9    5    5                                             5.0000E+01                             FIXED IMPEDANCE 

      10    5    5                                             5.0000E+01                             FIXED IMPEDANCE 

      11    5    5                                             5.0000E+01                             FIXED IMPEDANCE 

      12    5    5                                             5.0000E+01                             FIXED IMPEDANCE 

      13    5    5                                             5.0000E+01                             FIXED IMPEDANCE 

      14    5    5                                             5.0000E+01                             FIXED IMPEDANCE 

      15    5    5                                             5.0000E+01                             FIXED IMPEDANCE 

      16    5    5                                             5.0000E+01                             FIXED IMPEDANCE 

      17    5    5                                             5.0000E+01                             FIXED IMPEDANCE 

      18    5    5                                             5.0000E+01                             FIXED IMPEDANCE 

      19    5    5                                             5.0000E+01                             FIXED IMPEDANCE 

      20    5    5                                             5.0000E+01                             FIXED IMPEDANCE 



                                  - - - ANTENNA ENVIRONMENT - - -

                                            FREE SPACE



                                - - - MATRIX TIMING - - -

                        FILL=    0.031 SEC.,  FACTOR=    0.016 SEC.



                                          - - - ANTENNA INPUT PARAMETERS - - -

   TAG   SEG.    VOLTAGE (VOLTS)         CURRENT (AMPS)         IMPEDANCE (OHMS)        ADMITTANCE (MHOS)      POWER
   NO.   NO.    REAL        IMAG.       REAL        IMAG.       REAL        IMAG.       REAL        IMAG.     (WATTS)
     3    23 1.00000E+00 0.00000E+00 7.27738E-03-1.45019E-03 1.32164E+02 2.63367E+01 7.27738E-03-1.45019E-03 3.63869E-03



                             - - - CURRENTS AND LOCATION - - -

                                 DISTANCES IN WAVELENGTHS


  SEG.  TAG    COORD. OF SEG. CENTER     SEG.            - - - CURRENT (AMPS) - - -
  NO.   NO.     X        Y        Z      LENGTH     REAL        IMAG.       MAG.        PHASE
     1    1   0.0000   0.0000  -0.2222  0.05555  -1.1336E-04 -3.2156E-05  1.1783E-04 -164.163
     2    1   0.0000   0.0000  -0.1667  0.05555  -3.0604E-04 -8.2288E-05  3.1691E-04 -164.950
     3    1   0.0000   0.0000  -0.1111  0.05555  -4.5701E-04 -1.1586E-04  4.7146E-04 -165.775
     4    1   0.0000   0.0000  -0.0556  0.05555  -5.5552E-04 -1.3100E-04  5.7075E-04 -166.731
     5    1   0.0000   0.0000   0.0000  0.05555  -5.9102E-04 -1.2944E-04  6.0503E-04 -167.646
     6    1   0.0000   0.0000   0.0556  0.05555  -5.5552E-04 -1.3100E-04  5.7075E-04 -166.731
     7    1   0.0000   0.0000   0.1111  0.05555  -4.5701E-04 -1.1586E-04  4.7146E-04 -165.775
     8    1   0.0000   0.0000   0.1667  0.05555  -3.0604E-04 -8.2288E-05  3.1691E-04 -164.950
     9    1   0.0000   0.0000   0.2222  0.05555  -1.1336E-04 -3.2156E-05  1.1783E-04 -164.163
    10    2   0.0000   0.5000  -0.2222  0.05555   2.7250E-04  1.2812E-04  3.0112E-04   25.181
    11    2   0.0000   0.5000  -0.1667  0.05555   7.3461E-04  3.3653E-04  8.0802E-04   24.613
    12    2   0.0000   0.5000  -0.1111  0.05555   1.0968E-03  4.8692E-04  1.2001E-03   23.938
    13    2   0.0000   0.5000  -0.0556  0.05555   1.3352E-03  5.6862E-04  1.4512E-03   23.068
    14    2   0.0000   0.5000   0.0000  0.05555   1.4240E-03  5.8057E-04  1.5378E-03   22.180
    15    2   0.0000   0.5000   0.0556  0.05555   1.3352E-03  5.6862E-04  1.4512E-03   23.068
    16    2   0.0000   0.5000   0.1111  0.05555   1.0968E-03  4.8692E-04  1.2001E-03   23.938
    17    2   0.0000   0.5000   0.1667  0.05555   7.3461E-04  3.3653E-04  8.0802E-04   24.613
    18    2   0.0000   0.5000   0.2222  0.05555   2.7250E-04  1.2812E-04  3.0112E-04   25.181
    19    3   0.0000   1.0000  -0.2222  0.05555   1.4285E-03 -4.1049E-04  1.4863E-03  -16.033
    20    3   0.0000   1.0000  -0.1667  0.05555   3.8387E-03 -1.0401E-03  3.9771E-03  -15.160
    21    3   0.0000   1.0000  -0.1111  0.05555   5.7019E-03 -1.4326E-03  5.8791E-03  -14.103
    22    3   0.0000   1.0000  -0.0556  0.05555   6.8853E-03 -1.5534E-03  7.0583E-03  -12.714
    23    3   0.0000   1.0000   0.0000  0.05555   7.2774E-03 -1.4502E-03  7.4205E-03  -11.270
    24    3   0.0000   1.0000   0.0556  0.05555   6.8853E-03 -1.5534E-03  7.0583E-03  -12.714
    25    3   0.0000   1.0000   0.1111  0.05555   5.7019E-03 -1.4326E-03  5.8791E-03  -14.103
    26    3   0.0000   1.0000   0.1667  0.05555   3.8387E-03 -1.0401E-03  3.9771E-03  -15.160
    27    3   0.0000   1.0000   0.2222  0.05555   1.4285E-03 -4.1049E-04  1.4863E-03  -16.033
    28    4   0.0000   1.5000  -0.2222  0.05555   2.6835E-04  1.2470E-04  2.9591E-04   24.923
    29    4   0.0000   1.5000  -0.1667  0.05555   7.2332E-04  3.2748E-04  7.9400E-04   24.359
    30    4   0.0000   1.5000  -0.1111  0.05555   1.0798E-03  4.7370E-04  1.1792E-03   23.686
    31    4   0.0000   1.5000  -0.0556  0.05555   1.3144E-03  5.5296E-04  1.4260E-03   22.817
    32    4   0.0000   1.5000   0.0000  0.05555   1.4017E-03  5.6432E-04  1.5110E-03   21.930
    33    4   0.0000   1.5000   0.0556  0.05555   1.3144E-03  5.5296E-04  1.4260E-03   22.817
    34    4   0.0000   1.5000   0.1111  0.05555   1.0798E-03  4.7370E-04  1.1792E-03   23.686
    35    4   0.0000   1.5000   0.1667  0.05555   7.2332E-04  3.2748E-04  7.9400E-04   24.359
    36    4   0.0000   1.5000   0.2222  0.05555   2.6835E-04  1.2470E-04  2.9591E-04   24.923
    37    5   0.0000   2.0000  -0.2222  0.05555  -1.0111E-04 -1.8516E-05  1.0280E-04 -169.623
    38    5   0.0000   2.0000  -0.1667  0.05555  -2.7277E-04 -4.6025E-05  2.7663E-04 -170.423
    39    5   0.0000   2.0000  -0.1111  0.05555  -4.0692E-04 -6.2591E-05  4.1170E-04 -171.255
    40    5   0.0000   2.0000  -0.0556  0.05555  -4.9393E-04 -6.7518E-05  4.9852E-04 -172.216
    41    5   0.0000   2.0000   0.0000  0.05555  -5.2471E-04 -6.3194E-05  5.2850E-04 -173.133
    42    5   0.0000   2.0000   0.0556  0.05555  -4.9393E-04 -6.7518E-05  4.9852E-04 -172.216
    43    5   0.0000   2.0000   0.1111  0.05555  -4.0692E-04 -6.2591E-05  4.1170E-04 -171.255
    44    5   0.0000   2.0000   0.1667  0.05555  -2.7277E-04 -4.6025E-05  2.7663E-04 -170.423
    45    5   0.0000   2.0000   0.2222  0.05555  -1.0111E-04 -1.8516E-05  1.0280E-04 -169.623
    46    6   0.0000   2.4999  -0.2222  0.05555   5.6705E-05  1.5458E-06  5.6726E-05    1.561
    47    6   0.0000   2.4999  -0.1667  0.05555   1.5289E-04  2.0340E-06  1.5290E-04    0.762
    48    6   0.0000   2.4999  -0.1111  0.05555   2.2781E-04 -2.6605E-07  2.2781E-04   -0.067
    49    6   0.0000   2.4999  -0.0556  0.05555   2.7598E-04 -4.9336E-06  2.7602E-04   -1.024
    50    6   0.0000   2.4999   0.0000  0.05555   2.9251E-04 -9.9033E-06  2.9268E-04   -1.939
    51    6   0.0000   2.4999   0.0556  0.05555   2.7598E-04 -4.9336E-06  2.7602E-04   -1.024
    52    6   0.0000   2.4999   0.1111  0.05555   2.2781E-04 -2.6605E-07  2.2781E-04   -0.067
    53    6   0.0000   2.4999   0.1667  0.05555   1.5289E-04  2.0340E-06  1.5290E-04    0.762
    54    6   0.0000   2.4999   0.2222  0.05555   5.6705E-05  1.5458E-06  5.6726E-05    1.561
    55    7   0.0000   2.9999  -0.2222  0.05555  -3.7428E-05  2.5600E-06  3.7515E-05  176.087
    56    7   0.0000   2.9999  -0.1667  0.05555  -1.0086E-04  8.2898E-06  1.0120E-04  175.301
    57    7   0.0000   2.9999  -0.1111  0.05555  -1.5016E-04  1.4506E-05  1.5086E-04  174.482
    58    7   0.0000   2.9999  -0.0556  0.05555  -1.8168E-04  2.0599E-05  1.8284E-04  173.531
    59    7   0.0000   2.9999   0.0000  0.05555  -1.9229E-04  2.4910E-05  1.9389E-04  172.619
    60    7   0.0000   2.9999   0.0556  0.05555  -1.8168E-04  2.0599E-05  1.8284E-04  173.531
    61    7   0.0000   2.9999   0.1111  0.05555  -1.5016E-04  1.4506E-05  1.5086E-04  174.482
    62    7   0.0000   2.9999   0.1667  0.05555  -1.0086E-04  8.2898E-06  1.0120E-04  175.301
    63    7   0.0000   2.9999   0.2222  0.05555  -3.7428E-05  2.5600E-06  3.7515E-05  176.087
    64    8   0.0000   3.4999  -0.2222  0.05555   2.7131E-05 -3.6526E-06  2.7375E-05   -7.668
    65    8   0.0000   3.4999  -0.1667  0.05555   7.3085E-05 -1.0846E-05  7.3885E-05   -8.441
    66    8   0.0000   3.4999  -0.1111  0.05555   1.0874E-04 -1.7712E-05  1.1018E-04   -9.251
    67    8   0.0000   3.4999  -0.0556  0.05555   1.3144E-04 -2.3644E-05  1.3355E-04  -10.197
    68    8   0.0000   3.4999   0.0000  0.05555   1.3898E-04 -2.7287E-05  1.4164E-04  -11.108
    69    8   0.0000   3.4999   0.0556  0.05555   1.3144E-04 -2.3644E-05  1.3355E-04  -10.197
    70    8   0.0000   3.4999   0.1111  0.05555   1.0874E-04 -1.7712E-05  1.1018E-04   -9.251
    71    8   0.0000   3.4999   0.1667  0.05555   7.3085E-05 -1.0846E-05  7.3885E-05   -8.441
    72    8   0.0000   3.4999   0.2222  0.05555   2.7131E-05 -3.6526E-06  2.7375E-05   -7.668
    73    9   0.0000   3.9999  -0.2222  0.05555  -2.0912E-05  3.8418E-06  2.1262E-05  169.590
    74    9   0.0000   3.9999  -0.1667  0.05555  -5.6316E-05  1.1123E-05  5.7404E-05  168.827
    75    9   0.0000   3.9999  -0.1111  0.05555  -8.3754E-05  1.7766E-05  8.5618E-05  168.024
    76    9   0.0000   3.9999  -0.0556  0.05555  -1.0117E-04  2.3204E-05  1.0380E-04  167.082
    77    9   0.0000   3.9999   0.0000  0.05555  -1.0689E-04  2.6309E-05  1.1008E-04  166.173
    78    9   0.0000   3.9999   0.0556  0.05555  -1.0117E-04  2.3204E-05  1.0380E-04  167.082
    79    9   0.0000   3.9999   0.1111  0.05555  -8.3754E-05  1.7766E-05  8.5618E-05  168.024
    80    9   0.0000   3.9999   0.1667  0.05555  -5.6316E-05  1.1123E-05  5.7404E-05  168.827
    81    9   0.0000   3.9999   0.2222  0.05555  -2.0912E-05  3.8418E-06  2.1262E-05  169.590
    82   10   0.0000   4.4999  -0.2222  0.05555   1.6834E-05 -3.7295E-06  1.7242E-05  -12.492
    83   10   0.0000   4.4999  -0.1667  0.05555   4.5324E-05 -1.0669E-05  4.6563E-05  -13.246
    84   10   0.0000   4.4999  -0.1111  0.05555   6.7383E-05 -1.6855E-05  6.9459E-05  -14.044
    85   10   0.0000   4.4999  -0.0556  0.05555   8.1352E-05 -2.1770E-05  8.4215E-05  -14.982
    86   10   0.0000   4.4999   0.0000  0.05555   8.5903E-05 -2.4454E-05  8.9316E-05  -15.890
    87   10   0.0000   4.4999   0.0556  0.05555   8.1352E-05 -2.1770E-05  8.4215E-05  -14.982
    88   10   0.0000   4.4999   0.1111  0.05555   6.7383E-05 -1.6855E-05  6.9459E-05  -14.044
    89   10   0.0000   4.4999   0.1667  0.05555   4.5324E-05 -1.0669E-05  4.6563E-05  -13.246
    90   10   0.0000   4.4999   0.2222  0.05555   1.6834E-05 -3.7295E-06  1.7242E-05  -12.492
    91   11   0.0000   4.9999  -0.2222  0.05555  -1.4000E-05  3.5182E-06  1.4435E-05  165.893
    92   11   0.0000   4.9999  -0.1667  0.05555  -3.7687E-05  9.9952E-06  3.8990E-05  165.146
    93   11   0.0000   4.9999  -0.1111  0.05555  -5.6013E-05  1.5688E-05  5.8168E-05  164.354
    94   11   0.0000   4.9999  -0.0556  0.05555  -6.7597E-05  2.0128E-05  7.0530E-05  163.418
    95   11   0.0000   4.9999   0.0000  0.05555  -7.1345E-05  2.2480E-05  7.4803E-05  162.511
    96   11   0.0000   4.9999   0.0556  0.05555  -6.7597E-05  2.0128E-05  7.0530E-05  163.418
    97   11   0.0000   4.9999   0.1111  0.05555  -5.6013E-05  1.5688E-05  5.8168E-05  164.354
    98   11   0.0000   4.9999   0.1667  0.05555  -3.7687E-05  9.9952E-06  3.8990E-05  165.146
    99   11   0.0000   4.9999   0.2222  0.05555  -1.4000E-05  3.5182E-06  1.4435E-05  165.893
   100   12   0.0000   5.4999  -0.2222  0.05555   1.1945E-05 -3.2823E-06  1.2388E-05  -15.365
   101   12   0.0000   5.4999  -0.1667  0.05555   3.2150E-05 -9.2835E-06  3.3464E-05  -16.106
   102   12   0.0000   5.4999  -0.1111  0.05555   4.7774E-05 -1.4510E-05  4.9929E-05  -16.895
   103   12   0.0000   5.4999  -0.0556  0.05555   5.7635E-05 -1.8536E-05  6.0542E-05  -17.828
   104   12   0.0000   5.4999   0.0000  0.05555   6.0809E-05 -2.0624E-05  6.4211E-05  -18.735
   105   12   0.0000   5.4999   0.0556  0.05555   5.7635E-05 -1.8536E-05  6.0542E-05  -17.828
   106   12   0.0000   5.4999   0.1111  0.05555   4.7774E-05 -1.4510E-05  4.9929E-05  -16.895
   107   12   0.0000   5.4999   0.1667  0.05555   3.2150E-05 -9.2835E-06  3.3464E-05  -16.106
   108   12   0.0000   5.4999   0.2222  0.05555   1.1945E-05 -3.2823E-06  1.2388E-05  -15.365
   109   13   0.0000   5.9998  -0.2222  0.05555  -1.0409E-05  3.0494E-06  1.0846E-05  163.671
   110   13   0.0000   5.9998  -0.1667  0.05555  -2.8012E-05  8.5994E-06  2.9303E-05  162.934
   111   13   0.0000   5.9998  -0.1111  0.05555  -4.1618E-05  1.3403E-05  4.3723E-05  162.149
   112   13   0.0000   5.9998  -0.0556  0.05555  -5.0196E-05  1.7071E-05  5.3020E-05  161.218
   113   13   0.0000   5.9998   0.0000  0.05555  -5.2946E-05  1.8946E-05  5.6234E-05  160.311
   114   13   0.0000   5.9998   0.0556  0.05555  -5.0196E-05  1.7071E-05  5.3020E-05  161.218
   115   13   0.0000   5.9998   0.1111  0.05555  -4.1618E-05  1.3403E-05  4.3723E-05  162.149
   116   13   0.0000   5.9998   0.1667  0.05555  -2.8012E-05  8.5994E-06  2.9303E-05  162.934
   117   13   0.0000   5.9998   0.2222  0.05555  -1.0409E-05  3.0494E-06  1.0846E-05  163.671
   118   14   0.0000   6.4998  -0.2222  0.05555   9.2367E-06 -2.8286E-06  9.6601E-06  -17.026
   119   14   0.0000   6.4998  -0.1667  0.05555   2.4857E-05 -7.9611E-06  2.6100E-05  -17.759
   120   14   0.0000   6.4998  -0.1111  0.05555   3.6925E-05 -1.2385E-05  3.8947E-05  -18.542
   121   14   0.0000   6.4998  -0.0556  0.05555   4.4528E-05 -1.5744E-05  4.7230E-05  -19.472
   122   14   0.0000   6.4998   0.0000  0.05555   4.6958E-05 -1.7443E-05  5.0093E-05  -20.378
   123   14   0.0000   6.4998   0.0556  0.05555   4.4528E-05 -1.5744E-05  4.7230E-05  -19.472
   124   14   0.0000   6.4998   0.1111  0.05555   3.6925E-05 -1.2385E-05  3.8947E-05  -18.542
   125   14   0.0000   6.4998   0.1667  0.05555   2.4857E-05 -7.9611E-06  2.6100E-05  -17.759
   126   14   0.0000   6.4998   0.2222  0.05555   9.2367E-06 -2.8286E-06  9.6601E-06  -17.026
   127   15   0.0000   6.9998  -0.2222  0.05555  -8.3346E-06  2.6207E-06  8.7369E-06  162.545
   128   15   0.0000   6.9998  -0.1667  0.05555  -2.2429E-05  7.3677E-06  2.3608E-05  161.815
   129   15   0.0000   6.9998  -0.1111  0.05555  -3.3317E-05  1.1450E-05  3.5229E-05  161.034
   130   15   0.0000   6.9998  -0.0556  0.05555  -4.0172E-05  1.4538E-05  4.2722E-05  160.105
   131   15   0.0000   6.9998   0.0000  0.05555  -4.2360E-05  1.6091E-05  4.5313E-05  159.200
   132   15   0.0000   6.9998   0.0556  0.05555  -4.0172E-05  1.4538E-05  4.2722E-05  160.105
   133   15   0.0000   6.9998   0.1111  0.05555  -3.3317E-05  1.1450E-05  3.5229E-05  161.034
   134   15   0.0000   6.9998   0.1667  0.05555  -2.2429E-05  7.3677E-06  2.3608E-05  161.815
   135   15   0.0000   6.9998   0.2222  0.05555  -8.3346E-06  2.6207E-06  8.7370E-06  162.545
   136   16   0.0000   7.4998  -0.2222  0.05555   7.6463E-06 -2.4209E-06  8.0204E-06  -17.568
   137   16   0.0000   7.4998  -0.1667  0.05555   2.0577E-05 -6.8040E-06  2.1673E-05  -18.297
   138   16   0.0000   7.4998  -0.1111  0.05555   3.0566E-05 -1.0571E-05  3.2343E-05  -19.077
   139   16   0.0000   7.4998  -0.0556  0.05555   3.6856E-05 -1.3418E-05  3.9222E-05  -20.005
   140   16   0.0000   7.4998   0.0000  0.05555   3.8861E-05 -1.4847E-05  4.1601E-05  -20.910
   141   16   0.0000   7.4998   0.0556  0.05555   3.6856E-05 -1.3418E-05  3.9222E-05  -20.005
   142   16   0.0000   7.4998   0.1111  0.05555   3.0566E-05 -1.0571E-05  3.2343E-05  -19.077
   143   16   0.0000   7.4998   0.1667  0.05555   2.0577E-05 -6.8040E-06  2.1673E-05  -18.297
   144   16   0.0000   7.4998   0.2222  0.05555   7.6463E-06 -2.4209E-06  8.0204E-06  -17.568
   145   17   0.0000   7.9998  -0.2222  0.05555  -7.1451E-06  2.2178E-06  7.4814E-06  162.756
   146   17   0.0000   7.9998  -0.1667  0.05555  -1.9230E-05  6.2383E-06  2.0217E-05  162.027
   147   17   0.0000   7.9998  -0.1111  0.05555  -2.8569E-05  9.6996E-06  3.0170E-05  161.247
   148   17   0.0000   7.9998  -0.0556  0.05555  -3.4450E-05  1.2323E-05  3.6588E-05  160.318
   149   17   0.0000   7.9998   0.0000  0.05555  -3.6329E-05  1.3645E-05  3.8807E-05  159.413
   150   17   0.0000   7.9998   0.0556  0.05555  -3.4450E-05  1.2323E-05  3.6588E-05  160.318
   151   17   0.0000   7.9998   0.1111  0.05555  -2.8569E-05  9.6996E-06  3.0170E-05  161.247
   152   17   0.0000   7.9998   0.1667  0.05555  -1.9230E-05  6.2383E-06  2.0217E-05  162.027
   153   17   0.0000   7.9998   0.2222  0.05555  -7.1451E-06  2.2178E-06  7.4814E-06  162.756
   154   18   0.0000   8.4998  -0.2222  0.05555   6.8394E-06 -1.9833E-06  7.1211E-06  -16.171
   155   18   0.0000   8.4998  -0.1667  0.05555   1.8411E-05 -5.5953E-06  1.9243E-05  -16.904
   156   18   0.0000   8.4998  -0.1111  0.05555   2.7359E-05 -8.7245E-06  2.8717E-05  -17.687
   157   18   0.0000   8.4998  -0.0556  0.05555   3.3003E-05 -1.1117E-05  3.4825E-05  -18.617
   158   18   0.0000   8.4998   0.0000  0.05555   3.4813E-05 -1.2343E-05  3.6937E-05  -19.522
   159   18   0.0000   8.4998   0.0556  0.05555   3.3003E-05 -1.1117E-05  3.4825E-05  -18.617
   160   18   0.0000   8.4998   0.1111  0.05555   2.7359E-05 -8.7245E-06  2.8717E-05  -17.687
   161   18   0.0000   8.4998   0.1667  0.05555   1.8411E-05 -5.5953E-06  1.9243E-05  -16.904
   162   18   0.0000   8.4998   0.2222  0.05555   6.8394E-06 -1.9833E-06  7.1211E-06  -16.171
   163   19   0.0000   8.9998  -0.2222  0.05555  -6.8154E-06  1.6222E-06  7.0058E-06  166.611
   164   19   0.0000   8.9998  -0.1667  0.05555  -1.8355E-05  4.6226E-06  1.8928E-05  165.864
   165   19   0.0000   8.9998  -0.1111  0.05555  -2.7291E-05  7.2757E-06  2.8244E-05  165.072
   166   19   0.0000   8.9998  -0.0556  0.05555  -3.2946E-05  9.3618E-06  3.4250E-05  164.137
   167   19   0.0000   8.9998   0.0000  0.05555  -3.4782E-05  1.0482E-05  3.6327E-05  163.230
   168   19   0.0000   8.9998   0.0556  0.05555  -3.2946E-05  9.3618E-06  3.4250E-05  164.137
   169   19   0.0000   8.9998   0.1111  0.05555  -2.7291E-05  7.2757E-06  2.8244E-05  165.072
   170   19   0.0000   8.9998   0.1667  0.05555  -1.8355E-05  4.6226E-06  1.8928E-05  165.864
   171   19   0.0000   8.9998   0.2222  0.05555  -6.8154E-06  1.6222E-06  7.0058E-06  166.611
   172   20   0.0000   9.4998  -0.2222  0.05555   7.5709E-06 -5.7051E-07  7.5924E-06   -4.309
   173   20   0.0000   9.4998  -0.1667  0.05555   2.0404E-05 -1.8139E-06  2.0484E-05   -5.080
   174   20   0.0000   9.4998  -0.1111  0.05555   3.0377E-05 -3.1335E-06  3.0538E-05   -5.890
   175   20   0.0000   9.4998  -0.0556  0.05555   3.6749E-05 -4.4050E-06  3.7012E-05   -6.835
   176   20   0.0000   9.4998   0.0000  0.05555   3.8891E-05 -5.2903E-06  3.9249E-05   -7.746
   177   20   0.0000   9.4998   0.0556  0.05555   3.6749E-05 -4.4050E-06  3.7012E-05   -6.835
   178   20   0.0000   9.4998   0.1111  0.05555   3.0377E-05 -3.1335E-06  3.0538E-05   -5.890
   179   20   0.0000   9.4998   0.1667  0.05555   2.0404E-05 -1.8139E-06  2.0484E-05   -5.080
   180   20   0.0000   9.4998   0.2222  0.05555   7.5709E-06 -5.7051E-07  7.5924E-06   -4.309



                                        - - - POWER BUDGET - - -

                                           INPUT POWER   = 3.6387E-03 WATTS
                                           RADIATED POWER= 2.1251E-03 WATTS
                                           STRUCTURE LOSS= 1.5136E-03 WATTS
                                           NETWORK LOSS  = 0.0000E+00 WATTS
                                           EFFICIENCY    =  58.40 PERCENT



                                                - - - RADIATION PATTERNS - - -

  - - ANGLES - -           - POWER GAINS -       - - - POLARIZATION - - -    - - - E(THETA) - - -    - - - E(PHI) - - -
  THETA     PHI        VERT.   HOR.    TOTAL      AXIAL     TILT   SENSE     MAGNITUDE    PHASE      MAGNITUDE    PHASE 
 DEGREES  DEGREES       DB      DB      DB        RATIO     DEG.              VOLTS/M    DEGREES      VOLTS/M    DEGREES
 -180.00     0.00    -999.99 -999.99 -999.99    0.00000     0.00            4.49112E-12    85.59    0.00000E+00     0.00
 -175.00     0.00     -21.70 -999.99  -21.70    0.00000     0.00  LINEAR    3.84250E-02   -94.41    0.00000E+00     0.00
 -170.00     0.00     -15.66 -999.99  -15.66    0.00000     0.00  LINEAR    7.70058E-02   -94.42    0.00000E+00     0.00
 -165.00     0.00     -12.11 -999.99  -12.11    0.00000     0.00  LINEAR    1.15872E-01   -94.43    0.00000E+00     0.00
 -160.00     0.00      -9.58 -999.99   -9.58    0.00000     0.00  LINEAR    1.55103E-01   -94.45    0.00000E+00     0.00
 -155.00     0.00      -7.60 -999.99   -7.60    0.00000     0.00  LINEAR    1.94704E-01   -94.47    0.00000E+00     0.00
 -150.00     0.00      -5.98 -999.99   -5.98    0.00000     0.00  LINEAR    2.34585E-01   -94.49    0.00000E+00     0.00
 -145.00     0.00      -4.62 -999.99   -4.62    0.00000     0.00  LINEAR    2.74548E-01   -94.51    0.00000E+00     0.00
 -140.00     0.00      -3.44 -999.99   -3.44    0.00000     0.00  LINEAR    3.14273E-01   -94.53    0.00000E+00     0.00
 -135.00     0.00      -2.42 -999.99   -2.42    0.00000     0.00  LINEAR    3.53319E-01   -94.56    0.00000E+00     0.00
 -130.00     0.00      -1.54 -999.99   -1.54    0.00000     0.00  LINEAR    3.91130E-01   -94.58    0.00000E+00     0.00
 -125.00     0.00      -0.78 -999.99   -0.78    0.00000     0.00  LINEAR    4.27047E-01   -94.61    0.00000E+00     0.00
 -120.00     0.00      -0.13 -999.99   -0.13    0.00000     0.00  LINEAR    4.60341E-01   -94.63    0.00000E+00     0.00
 -115.00     0.00       0.42 -999.99    0.42    0.00000     0.00  LINEAR    4.90243E-01   -94.64    0.00000E+00     0.00
 -110.00     0.00       0.86 -999.99    0.86    0.00000     0.00  LINEAR    5.15990E-01   -94.66    0.00000E+00     0.00
 -105.00     0.00       1.21 -999.99    1.21    0.00000     0.00  LINEAR    5.36868E-01   -94.67    0.00000E+00     0.00
 -100.00     0.00       1.45 -999.99    1.45    0.00000     0.00  LINEAR    5.52263E-01   -94.68    0.00000E+00     0.00
  -95.00     0.00       1.60 -999.99    1.60    0.00000     0.00  LINEAR    5.61700E-01   -94.69    0.00000E+00     0.00
  -90.00     0.00       1.65 -999.99    1.65    0.00000     0.00  LINEAR    5.64879E-01   -94.69    0.00000E+00     0.00
  -85.00     0.00       1.60 -999.99    1.60    0.00000     0.00  LINEAR    5.61700E-01   -94.69    0.00000E+00     0.00
  -80.00     0.00       1.45 -999.99    1.45    0.00000     0.00  LINEAR    5.52263E-01   -94.68    0.00000E+00     0.00
  -75.00     0.00       1.21 -999.99    1.21    0.00000     0.00  LINEAR    5.36868E-01   -94.67    0.00000E+00     0.00
  -70.00     0.00       0.86 -999.99    0.86    0.00000     0.00  LINEAR    5.15990E-01   -94.66    0.00000E+00     0.00
  -65.00     0.00       0.42 -999.99    0.42    0.00000     0.00  LINEAR    4.90243E-01   -94.64    0.00000E+00     0.00
  -60.00     0.00      -0.13 -999.99   -0.13    0.00000     0.00  LINEAR    4.60341E-01   -94.63    0.00000E+00     0.00
  -55.00     0.00      -0.78 -999.99   -0.78    0.00000     0.00  LINEAR    4.27047E-01   -94.61    0.00000E+00     0.00
  -50.00     0.00      -1.54 -999.99   -1.54    0.00000     0.00  LINEAR    3.91130E-01   -94.58    0.00000E+00     0.00
  -45.00     0.00      -2.42 -999.99   -2.42    0.00000     0.00  LINEAR    3.53319E-01   -94.56    0.00000E+00     0.00
  -40.00     0.00      -3.44 -999.99   -3.44    0.00000     0.00  LINEAR    3.14273E-01   -94.53    0.00000E+00     0.00
  -35.00     0.00      -4.62 -999.99   -4.62    0.00000     0.00  LINEAR    2.74548E-01   -94.51    0.00000E+00     0.00
  -30.00     0.00      -5.98 -999.99   -5.98    0.00000     0.00  LINEAR    2.34585E-01   -94.49    0.00000E+00     0.00
  -25.00     0.00      -7.60 -999.99   -7.60    0.00000     0.00  LINEAR    1.94704E-01   -94.47    0.00000E+00     0.00
  -20.00     0.00      -9.58 -999.99   -9.58    0.00000     0.00  LINEAR    1.55103E-01   -94.45    0.00000E+00     0.00
  -15.00     0.00     -12.11 -999.99  -12.11    0.00000     0.00  LINEAR    1.15872E-01   -94.43    0.00000E+00     0.00
  -10.00     0.00     -15.66 -999.99  -15.66    0.00000     0.00  LINEAR    7.70058E-02   -94.42    0.00000E+00     0.00
   -5.00     0.00     -21.70 -999.99  -21.70    0.00000     0.00  LINEAR    3.84250E-02   -94.41    0.00000E+00     0.00
    0.00     0.00    -999.99 -999.99 -999.99    0.00000     0.00            0.00000E+00     0.00    0.00000E+00     0.00
 -180.00     5.00    -999.99 -999.99 -999.99    0.00000     0.00            4.49112E-12    85.59    0.00000E+00     0.00
 -175.00     5.00     -21.69 -999.99  -21.69    0.00000     0.00  LINEAR    3.84384E-02   -97.29    0.00000E+00     0.00
 -170.00     5.00     -15.65 -999.99  -15.65    0.00000     0.00  LINEAR    7.70339E-02  -100.14    0.00000E+00     0.00
 -165.00     5.00     -12.11 -999.99  -12.11    0.00000     0.00  LINEAR    1.15888E-01  -102.94    0.00000E+00     0.00
 -160.00     5.00      -9.58 -999.99   -9.58    0.00000     0.00  LINEAR    1.55073E-01  -105.65    0.00000E+00     0.00
 -155.00     5.00      -7.60 -999.99   -7.60    0.00000     0.00  LINEAR    1.94606E-01  -108.27    0.00000E+00     0.00
 -150.00     5.00      -5.99 -999.99   -5.99    0.00000     0.00  LINEAR    2.34429E-01  -110.77    0.00000E+00     0.00
 -145.00     5.00      -4.62 -999.99   -4.62    0.00000     0.00  LINEAR    2.74380E-01  -113.14    0.00000E+00     0.00
 -140.00     5.00      -3.44 -999.99   -3.44    0.00000     0.00  LINEAR    3.14170E-01  -115.37    0.00000E+00     0.00
 -135.00     5.00      -2.42 -999.99   -2.42    0.00000     0.00  LINEAR    3.53378E-01  -117.43    0.00000E+00     0.00
 -130.00     5.00      -1.53 -999.99   -1.53    0.00000     0.00  LINEAR    3.91444E-01  -119.33    0.00000E+00     0.00
 -125.00     5.00      -0.77 -999.99   -0.77    0.00000     0.00  LINEAR    4.27698E-01  -121.04    0.00000E+00     0.00
 -120.00     5.00      -0.11 -999.99   -0.11    0.00000     0.00  LINEAR    4.61380E-01  -122.55    0.00000E+00     0.00
 -115.00     5.00       0.45 -999.99    0.45    0.00000     0.00  LINEAR    4.91686E-01  -123.86    0.00000E+00     0.00
 -110.00     5.00       0.90 -999.99    0.90    0.00000     0.00  LINEAR    5.17818E-01  -124.95    0.00000E+00     0.00
 -105.00     5.00       1.24 -999.99    1.24    0.00000     0.00  LINEAR    5.39030E-01  -125.80    0.00000E+00     0.00
 -100.00     5.00       1.49 -999.99    1.49    0.00000     0.00  LINEAR    5.54681E-01  -126.42    0.00000E+00     0.00
  -95.00     5.00       1.64 -999.99    1.64    0.00000     0.00  LINEAR    5.64280E-01  -126.79    0.00000E+00     0.00
  -90.00     5.00       1.69 -999.99    1.69    0.00000     0.00  LINEAR    5.67514E-01  -126.92    0.00000E+00     0.00
  -85.00     5.00       1.64 -999.99    1.64    0.00000     0.00  LINEAR    5.64280E-01  -126.79    0.00000E+00     0.00
  -80.00     5.00       1.49 -999.99    1.49    0.00000     0.00  LINEAR    5.54681E-01  -126.42    0.00000E+00     0.00
  -75.00     5.00       1.24 -999.99    1.24    0.00000     0.00  LINEAR    5.39030E-01  -125.80    0.00000E+00     0.00
  -70.00     5.00       0.90 -999.99    0.90    0.00000     0.00  LINEAR    5.17818E-01  -124.95    0.00000E+00     0.00
  -65.00     5.00       0.45 -999.99    0.45    0.00000     0.00  LINEAR    4.91686E-01  -123.86    0.00000E+00     0.00
  -60.00     5.00      -0.11 -999.99   -0.11    0.00000     0.00  LINEAR    4.61380E-01  -122.55    0.00000E+00     0.00
  -55.00     5.00      -0.77 -999.99   -0.77    0.00000     0.00  LINEAR    4.27698E-01  -121.04    0.00000E+00     0.00
  -50.00     5.00      -1.53 -999.99   -1.53    0.00000     0.00  LINEAR    3.91444E-01  -119.33    0.00000E+00     0.00
  -45.00     5.00      -2.42 -999.99   -2.42    0.00000     0.00  LINEAR    3.53378E-01  -117.43    0.00000E+00     0.00
  -40.00     5.00      -3.44 -999.99   -3.44    0.00000     0.00  LINEAR    3.14170E-01  -115.37    0.00000E+00     0.00
  -35.00     5.00      -4.62 -999.99   -4.62    0.00000     0.00  LINEAR    2.74380E-01  -113.14    0.00000E+00     0.00
  -30.00     5.00      -5.99 -999.99   -5.99    0.00000     0.00  LINEAR    2.34429E-01  -110.77    0.00000E+00     0.00
  -25.00     5.00      -7.60 -999.99   -7.60    0.00000     0.00  LINEAR    1.94606E-01  -108.27    0.00000E+00     0.00
  -20.00     5.00      -9.58 -999.99   -9.58    0.00000     0.00  LINEAR    1.55073E-01  -105.65    0.00000E+00     0.00
  -15.00     5.00     -12.11 -999.99  -12.11    0.00000     0.00  LINEAR    1.15888E-01  -102.94    0.00000E+00     0.00
  -10.00     5.00     -15.65 -999.99  -15.65    0.00000     0.00  LINEAR    7.70339E-02  -100.14    0.00000E+00     0.00
   -5.00     5.00     -21.69 -999.99  -21.69    0.00000     0.00  LINEAR    3.84384E-02   -97.29    0.00000E+00     0.00
    0.00     5.00    -999.99 -999.99 -999.99    0.00000     0.00            0.00000E+00     0.00    0.00000E+00     0.00
 -180.00    10.00    -999.99 -999.99 -999.99    0.00000     0.00            4.49112E-12    85.59    0.00000E+00     0.00
 -175.00    10.00     -21.69 -999.99  -21.69    0.00000     0.00  LINEAR    3.84390E-02  -100.13    0.00000E+00     0.00
 -170.00    10.00     -15.66 -999.99  -15.66    0.00000     0.00  LINEAR    7.69888E-02  -105.76    0.00000E+00     0.00
 -165.00    10.00     -12.11 -999.99  -12.11    0.00000     0.00  LINEAR    1.15792E-01  -111.22    0.00000E+00     0.00
 -160.00    10.00      -9.58 -999.99   -9.58    0.00000     0.00  LINEAR    1.55088E-01  -116.50    0.00000E+00     0.00
 -155.00    10.00      -7.58 -999.99   -7.58    0.00000     0.00  LINEAR    1.95055E-01  -121.63    0.00000E+00     0.00
 -150.00    10.00      -5.94 -999.99   -5.94    0.00000     0.00  LINEAR    2.35640E-01  -126.59    0.00000E+00     0.00
 -145.00    10.00      -4.55 -999.99   -4.55    0.00000     0.00  LINEAR    2.76500E-01  -131.38    0.00000E+00     0.00
 -140.00    10.00      -3.36 -999.99   -3.36    0.00000     0.00  LINEAR    3.17091E-01  -135.92    0.00000E+00     0.00
 -135.00    10.00      -2.34 -999.99   -2.34    0.00000     0.00  LINEAR    3.56797E-01  -140.15    0.00000E+00     0.00
 -130.00    10.00      -1.46 -999.99   -1.46    0.00000     0.00  LINEAR    3.95011E-01  -144.01    0.00000E+00     0.00
 -125.00    10.00      -0.70 -999.99   -0.70    0.00000     0.00  LINEAR    4.31135E-01  -147.46    0.00000E+00     0.00
 -120.00    10.00      -0.05 -999.99   -0.05    0.00000     0.00  LINEAR    4.64545E-01  -150.47    0.00000E+00     0.00
 -115.00    10.00       0.50 -999.99    0.50    0.00000     0.00  LINEAR    4.94559E-01  -153.04    0.00000E+00     0.00
 -110.00    10.00       0.94 -999.99    0.94    0.00000     0.00  LINEAR    5.20452E-01  -155.16    0.00000E+00     0.00
 -105.00    10.00       1.28 -999.99    1.28    0.00000     0.00  LINEAR    5.41503E-01  -156.82    0.00000E+00     0.00
 -100.00    10.00       1.53 -999.99    1.53    0.00000     0.00  LINEAR    5.57062E-01  -158.01    0.00000E+00     0.00
  -95.00    10.00       1.68 -999.99    1.68    0.00000     0.00  LINEAR    5.66617E-01  -158.73    0.00000E+00     0.00
  -90.00    10.00       1.73 -999.99    1.73    0.00000     0.00  LINEAR    5.69840E-01  -158.97    0.00000E+00     0.00
  -85.00    10.00       1.68 -999.99    1.68    0.00000     0.00  LINEAR    5.66617E-01  -158.73    0.00000E+00     0.00
  -80.00    10.00       1.53 -999.99    1.53    0.00000     0.00  LINEAR    5.57062E-01  -158.01    0.00000E+00     0.00
  -75.00    10.00       1.28 -999.99    1.28    0.00000     0.00  LINEAR    5.41503E-01  -156.82    0.00000E+00     0.00
  -70.00    10.00       0.94 -999.99    0.94    0.00000     0.00  LINEAR    5.20452E-01  -155.16    0.00000E+00     0.00
  -65.00    10.00       0.50 -999.99    0.50    0.00000     0.00  LINEAR    4.94559E-01  -153.04    0.00000E+00     0.00
  -60.00    10.00      -0.05 -999.99   -0.05    0.00000     0.00  LINEAR    4.64545E-01  -150.47    0.00000E+00     0.00
  -55.00    10.00      -0.70 -999.99   -0.70    0.00000     0.00  LINEAR    4.31135E-01  -147.46    0.00000E+00     0.00
  -50.00    10.00      -1.46 -999.99   -1.46    0.00000     0.00  LINEAR    3.95011E-01  -144.01    0.00000E+00     0.00
  -45.00    10.00      -2.34 -999.99   -2.34    0.00000     0.00  LINEAR    3.56797E-01  -140.15    0.00000E+00     0.00
  -40.00    10.00      -3.36 -999.99   -3.36    0.00000     0.00  LINEAR    3.17091E-01  -135.92    0.00000E+00     0.00
  -35.00    10.00      -4.55 -999.99   -4.55    0.00000     0.00  LINEAR    2.76500E-01  -131.38    0.00000E+00     0.00
  -30.00    10.00      -5.94 -999.99   -5.94    0.00000     0.00  LINEAR    2.35640E-01  -126.59    0.00000E+00     0.00
  -25.00    10.00      -7.58 -999.99   -7.58    0.00000     0.00  LINEAR    1.95055E-01  -121.63    0.00000E+00     0.00
  -20.00    10.00      -9.58 -999.99   -9.58    0.00000     0.00  LINEAR    1.55088E-01  -116.50    0.00000E+00     0.00
  -15.00    10.00     -12.11 -999.99  -12.11    0.00000     0.00  LINEAR    1.15792E-01  -111.22    0.00000E+00     0.00
  -10.00    10.00     -15.66 -999.99  -15.66    0.00000     0.00  LINEAR    7.69888E-02  -105.76    0.00000E+00     0.00
   -5.00    10.00     -21.69 -999.99  -21.69    0.00000     0.00  LINEAR    3.84390E-02  -100.13    0.00000E+00     0.00
    0.00    10.00    -999.99 -999.99 -999.99    0.00000     0.00            0.00000E+00     0.00    0.00000E+00     0.00
 -180.00    15.00    -999.99 -999.99 -999.99    0.00000     0.00            4.49112E-12    85.59    0.00000E+00     0.00
 -175.00    15.00     -21.69 -999.99  -21.69    0.00000     0.00  LINEAR    3.84302E-02  -102.92    0.00000E+00     0.00
 -170.00    15.00     -15.66 -999.99  -15.66    0.00000     0.00  LINEAR    7.69520E-02  -111.21    0.00000E+00     0.00
 -165.00    15.00     -12.10 -999.99  -12.10    0.00000     0.00  LINEAR    1.15962E-01  -119.26    0.00000E+00     0.00
 -160.00    15.00      -9.53 -999.99   -9.53    0.00000     0.00  LINEAR    1.55853E-01  -127.18    0.00000E+00     0.00
 -155.00    15.00      -7.53 -999.99   -7.53    0.00000     0.00  LINEAR    1.96387E-01  -135.01    0.00000E+00     0.00
 -150.00    15.00      -5.90 -999.99   -5.90    0.00000     0.00  LINEAR    2.36906E-01  -142.56    0.00000E+00     0.00
 -145.00    15.00      -4.54 -999.99   -4.54    0.00000     0.00  LINEAR    2.77056E-01  -149.65    0.00000E+00     0.00
 -140.00    15.00      -3.37 -999.99   -3.37    0.00000     0.00  LINEAR    3.16944E-01  -156.19    0.00000E+00     0.00
 -135.00    15.00      -2.34 -999.99   -2.34    0.00000     0.00  LINEAR    3.56596E-01  -162.21    0.00000E+00     0.00
 -130.00    15.00      -1.45 -999.99   -1.45    0.00000     0.00  LINEAR    3.95464E-01  -167.77    0.00000E+00     0.00
 -125.00    15.00      -0.67 -999.99   -0.67    0.00000     0.00  LINEAR    4.32505E-01  -172.83    0.00000E+00     0.00
 -120.00    15.00      -0.01 -999.99   -0.01    0.00000     0.00  LINEAR    4.66585E-01  -177.35    0.00000E+00     0.00
 -115.00    15.00       0.54 -999.99    0.54    0.00000     0.00  LINEAR    4.96777E-01   178.76    0.00000E+00     0.00
 -110.00    15.00       0.97 -999.99    0.97    0.00000     0.00  LINEAR    5.22404E-01   175.53    0.00000E+00     0.00
 -105.00    15.00       1.31 -999.99    1.31    0.00000     0.00  LINEAR    5.42953E-01   173.01    0.00000E+00     0.00
 -100.00    15.00       1.54 -999.99    1.54    0.00000     0.00  LINEAR    5.57993E-01   171.21    0.00000E+00     0.00
  -95.00    15.00       1.69 -999.99    1.69    0.00000     0.00  LINEAR    5.67175E-01   170.13    0.00000E+00     0.00
  -90.00    15.00       1.73 -999.99    1.73    0.00000     0.00  LINEAR    5.70264E-01   169.76    0.00000E+00     0.00
  -85.00    15.00       1.69 -999.99    1.69    0.00000     0.00  LINEAR    5.67175E-01   170.13    0.00000E+00     0.00
  -80.00    15.00       1.54 -999.99    1.54    0.00000     0.00  LINEAR    5.57993E-01   171.21    0.00000E+00     0.00
  -75.00    15.00       1.31 -999.99    1.31    0.00000     0.00  LINEAR    5.42953E-01   173.01    0.00000E+00     0.00
  -70.00    15.00       0.97 -999.99    0.97    0.00000     0.00  LINEAR    5.22404E-01   175.53    0.00000E+00     0.00
  -65.00    15.00       0.54 -999.99    0.54    0.00000     0.00  LINEAR    4.96777E-01   178.76    0.00000E+00     0.00
  -60.00    15.00      -0.01 -999.99   -0.01    0.00000     0.00  LINEAR    4.66585E-01  -177.35    0.00000E+00     0.00
  -55.00    15.00      -0.67 -999.99   -0.67    0.00000     0.00  LINEAR    4.32505E-01  -172.83    0.00000E+00     0.00
  -50.00    15.00      -1.45 -999.99   -1.45    0.00000     0.00  LINEAR    3.95464E-01  -167.77    0.00000E+00     0.00
  -45.00    15.00      -2.34 -999.99   -2.34    0.00000     0.00  LINEAR    3.56596E-01  -162.21    0.00000E+00     0.00
  -40.00    15.00      -3.37 -999.99   -3.37    0.00000     0.00  LINEAR    3.16944E-01  -156.19    0.00000E+00     0.00
  -35.00    15.00      -4.54 -999.99   -4.54    0.00000     0.00  LINEAR    2.77056E-01  -149.65    0.00000E+00     0.00
  -30.00    15.00      -5.90 -999.99   -5.90    0.00000     0.00  LINEAR    2.36906E-01  -142.56    0.00000E+00     0.00
  -25.00    15.00      -7.53 -999.99   -7.53    0.00000     0.00  LINEAR    1.96387E-01  -135.01    0.00000E+00     0.00
  -20.00    15.00      -9.53 -999.99   -9.53    0.00000     0.00  LINEAR    1.55853E-01  -127.18    0.00000E+00     0.00
  -15.00    15.00     -12.10 -999.99  -12.10    0.00000     0.00  LINEAR    1.15962E-01  -119.26    0.00000E+00     0.00
  -10.00    15.00     -15.66 -999.99  -15.66    0.00000     0.00  LINEAR    7.69520E-02  -111.21    0.00000E+00     0.00
   -5.00    15.00     -21.69 -999.99  -21.69    0.00000     0.00  LINEAR    3.84302E-02  -102.92    0.00000E+00     0.00
    0.00    15.00    -999.99 -999.99 -999.99    0.00000     0.00            0.00000E+00     0.00    0.00000E+00     0.00
 -180.00    20.00    -999.99 -999.99 -999.99    0.00000     0.00            4.49112E-12    85.59    0.00000E+00     0.00
 -175.00    20.00     -21.70 -999.99  -21.70    0.00000     0.00  LINEAR    3.84171E-02  -105.62    0.00000E+00     0.00
 -170.00    20.00     -15.66 -999.99  -15.66    0.00000     0.00  LINEAR    7.69973E-02  -116.48    0.00000E+00     0.00
 -165.00    20.00     -12.07 -999.99  -12.07    0.00000     0.00  LINEAR    1.16432E-01  -127.17    0.00000E+00     0.00
 -160.00    20.00      -9.49 -999.99   -9.49    0.00000     0.00  LINEAR    1.56565E-01  -137.85    0.00000E+00     0.00
 -155.00    20.00      -7.52 -999.99   -7.52    0.00000     0.00  LINEAR    1.96518E-01  -148.17    0.00000E+00     0.00
 -150.00    20.00      -5.91 -999.99   -5.91    0.00000     0.00  LINEAR    2.36580E-01  -157.82    0.00000E+00     0.00
 -145.00    20.00      -4.52 -999.99   -4.52    0.00000     0.00  LINEAR    2.77496E-01  -166.93    0.00000E+00     0.00
 -140.00    20.00      -3.33 -999.99   -3.33    0.00000     0.00  LINEAR    3.18459E-01  -175.66    0.00000E+00     0.00
 -135.00    20.00      -2.32 -999.99   -2.32    0.00000     0.00  LINEAR    3.57737E-01   176.14    0.00000E+00     0.00
 -130.00    20.00      -1.47 -999.99   -1.47    0.00000     0.00  LINEAR    3.94527E-01   168.71    0.00000E+00     0.00
 -125.00    20.00      -0.74 -999.99   -0.74    0.00000     0.00  LINEAR    4.29025E-01   162.15    0.00000E+00     0.00
 -120.00    20.00      -0.11 -999.99   -0.11    0.00000     0.00  LINEAR    4.61241E-01   156.41    0.00000E+00     0.00
 -115.00    20.00       0.42 -999.99    0.42    0.00000     0.00  LINEAR    4.90448E-01   151.45    0.00000E+00     0.00
 -110.00    20.00       0.86 -999.99    0.86    0.00000     0.00  LINEAR    5.15575E-01   147.29    0.00000E+00     0.00
 -105.00    20.00       1.19 -999.99    1.19    0.00000     0.00  LINEAR    5.35730E-01   143.98    0.00000E+00     0.00
 -100.00    20.00       1.43 -999.99    1.43    0.00000     0.00  LINEAR    5.50375E-01   141.58    0.00000E+00     0.00
  -95.00    20.00       1.56 -999.99    1.56    0.00000     0.00  LINEAR    5.59239E-01   140.13    0.00000E+00     0.00
  -90.00    20.00       1.61 -999.99    1.61    0.00000     0.00  LINEAR    5.62205E-01   139.64    0.00000E+00     0.00
  -85.00    20.00       1.56 -999.99    1.56    0.00000     0.00  LINEAR    5.59239E-01   140.13    0.00000E+00     0.00
  -80.00    20.00       1.43 -999.99    1.43    0.00000     0.00  LINEAR    5.50375E-01   141.58    0.00000E+00     0.00
  -75.00    20.00       1.19 -999.99    1.19    0.00000     0.00  LINEAR    5.35730E-01   143.98    0.00000E+00     0.00
  -70.00    20.00       0.86 -999.99    0.86    0.00000     0.00  LINEAR    5.15575E-01   147.29    0.00000E+00     0.00
  -65.00    20.00       0.42 -999.99    0.42    0.00000     0.00  LINEAR    4.90448E-01   151.45    0.00000E+00     0.00
  -60.00    20.00      -0.11 -999.99   -0.11    0.00000     0.00  LINEAR    4.61241E-01   156.41    0.00000E+00     0.00
  -55.00    20.00      -0.74 -999.99   -0.74    0.00000     0.00  LINEAR    4.29025E-01   162.15    0.00000E+00     0.00
  -50.00    20.00      -1.47 -999.99   -1.47    0.00000     0.00  LINEAR    3.94527E-01   168.71    0.00000E+00     0.00
  -45.00    20.00      -2.32 -999.99   -2.32    0.00000     0.00  LINEAR    3.57737E-01   176.14    0.00000E+00     0.00
  -40.00    20.00      -3.33 -999.99   -3.33    0.00000     0.00  LINEAR    3.18459E-01  -175.66    0.00000E+00     0.00
  -35.00    20.00      -4.52 -999.99   -4.52    0.00000     0.00  LINEAR    2.77496E-01  -166.93    0.00000E+00     0.00
  -30.00    20.00      -5.91 -999.99   -5.91    0.00000     0.00  LINEAR    2.36580E-01  -157.82    0.00000E+00     0.00
  -25.00    20.00      -7.52 -999.99   -7.52    0.00000     0.00  LINEAR    1.96518E-01  -148.17    0.00000E+00     0.00
  -20.00    20.00      -9.49 -999.99   -9.49    0.00000     0.00  LINEAR    1.56565E-01  -137.85    0.00000E+00     0.00
  -15.00    20.00     -12.07 -999.99  -12.07    0.00000     0.00  LINEAR    1.16432E-01  -127.17    0.00000E+00     0.00
  -10.00    20.00     -15.66 -999.99  -15.66    0.00000     0.00  LINEAR    7.69973E-02  -116.48    0.00000E+00     0.00
   -5.00    20.00     -21.70 -999.99  -21.70    0.00000     0.00  LINEAR    3.84171E-02  -105.62    0.00000E+00     0.00
    0.00    20.00    -999.99 -999.99 -999.99    0.00000     0.00            0.00000E+00     0.00    0.00000E+00     0.00
 -180.00    25.00    -999.99 -999.99 -999.99    0.00000     0.00            4.49112E-12    85.59    0.00000E+00     0.00
 -175.00    25.00     -21.70 -999.99  -21.70    0.00000     0.00  LINEAR    3.84051E-02  -108.22    0.00000E+00     0.00
 -170.00    25.00     -15.64 -999.99  -15.64    0.00000     0.00  LINEAR    7.71434E-02  -121.58    0.00000E+00     0.00
 -165.00    25.00     -12.03 -999.99  -12.03    0.00000     0.00  LINEAR    1.16871E-01  -134.97    0.00000E+00     0.00
 -160.00    25.00      -9.50 -999.99   -9.50    0.00000     0.00  LINEAR    1.56546E-01  -148.15    0.00000E+00     0.00
 -155.00    25.00      -7.52 -999.99   -7.52    0.00000     0.00  LINEAR    1.96424E-01  -160.54    0.00000E+00     0.00
 -150.00    25.00      -5.87 -999.99   -5.87    0.00000     0.00  LINEAR    2.37540E-01  -172.46    0.00000E+00     0.00
 -145.00    25.00      -4.51 -999.99   -4.51    0.00000     0.00  LINEAR    2.77945E-01   175.98    0.00000E+00     0.00
 -140.00    25.00      -3.39 -999.99   -3.39    0.00000     0.00  LINEAR    3.16283E-01   165.27    0.00000E+00     0.00
 -135.00    25.00      -2.41 -999.99   -2.41    0.00000     0.00  LINEAR    3.53865E-01   155.53    0.00000E+00     0.00
 -130.00    25.00      -1.55 -999.99   -1.55    0.00000     0.00  LINEAR    3.90664E-01   146.50    0.00000E+00     0.00
 -125.00    25.00      -0.83 -999.99   -0.83    0.00000     0.00  LINEAR    4.24450E-01   138.18    0.00000E+00     0.00
 -120.00    25.00      -0.25 -999.99   -0.25    0.00000     0.00  LINEAR    4.53759E-01   130.81    0.00000E+00     0.00
 -115.00    25.00       0.21 -999.99    0.21    0.00000     0.00  LINEAR    4.78782E-01   124.56    0.00000E+00     0.00
 -110.00    25.00       0.59 -999.99    0.59    0.00000     0.00  LINEAR    4.99995E-01   119.45    0.00000E+00     0.00
 -105.00    25.00       0.89 -999.99    0.89    0.00000     0.00  LINEAR    5.17269E-01   115.45    0.00000E+00     0.00
 -100.00    25.00       1.10 -999.99    1.10    0.00000     0.00  LINEAR    5.30084E-01   112.56    0.00000E+00     0.00
  -95.00    25.00       1.23 -999.99    1.23    0.00000     0.00  LINEAR    5.37955E-01   110.80    0.00000E+00     0.00
  -90.00    25.00       1.27 -999.99    1.27    0.00000     0.00  LINEAR    5.40607E-01   110.21    0.00000E+00     0.00
  -85.00    25.00       1.23 -999.99    1.23    0.00000     0.00  LINEAR    5.37955E-01   110.80    0.00000E+00     0.00
  -80.00    25.00       1.10 -999.99    1.10    0.00000     0.00  LINEAR    5.30084E-01   112.56    0.00000E+00     0.00
  -75.00    25.00       0.89 -999.99    0.89    0.00000     0.00  LINEAR    5.17269E-01   115.45    0.00000E+00     0.00
  -70.00    25.00       0.59 -999.99    0.59    0.00000     0.00  LINEAR    4.99995E-01   119.45    0.00000E+00     0.00
  -65.00    25.00       0.21 -999.99    0.21    0.00000     0.00  LINEAR    4.78782E-01   124.56    0.00000E+00     0.00
  -60.00    25.00      -0.25 -999.99   -0.25    0.00000     0.00  LINEAR    4.53759E-01   130.81    0.00000E+00     0.00
  -55.00    25.00      -0.83 -999.99   -0.83    0.00000     0.00  LINEAR    4.24450E-01   138.18    0.00000E+00     0.00
  -50.00    25.00      -1.55 -999.99   -1.55    0.00000     0.00  LINEAR    3.90664E-01   146.50    0.00000E+00     0.00
  -45.00    25.00      -2.41 -999.99   -2.41    0.00000     0.00  LINEAR    3.53865E-01   155.53    0.00000E+00     0.00
  -40.00    25.00      -3.39 -999.99   -3.39    0.00000     0.00  LINEAR    3.16283E-01   165.27    0.00000E+00     0.00
  -35.00    25.00      -4.51 -999.99   -4.51    0.00000     0.00  LINEAR    2.77945E-01   175.98    0.00000E+00     0.00
  -30.00    25.00      -5.87 -999.99   -5.87    0.00000     0.00  LINEAR    2.37540E-01  -172.46    0.00000E+00     0.00
  -25.00    25.00      -7.52 -999.99   -7.52    0.00000     0.00  LINEAR    1.96424E-01  -160.54    0.00000E+00     0.00
  -20.00    25.00      -9.50 -999.99   -9.50    0.00000     0.00  LINEAR    1.56546E-01  -148.15    0.00000E+00     0.00
  -15.00    25.00     -12.03 -999.99  -12.03    0.00000     0.00  LINEAR    1.16871E-01  -134.97    0.00000E+00     0.00
  -10.00    25.00     -15.64 -999.99  -15.64    0.00000     0.00  LINEAR    7.71434E-02  -121.58    0.00000E+00     0.00
   -5.00    25.00     -21.70 -999.99  -21.70    0.00000     0.00  LINEAR    3.84051E-02  -108.22    0.00000E+00     0.00
    0.00    25.00    -999.99 -999.99 -999.99    0.00000     0.00            0.00000E+00     0.00    0.00000E+00     0.00
 -180.00    30.00    -999.99 -999.99 -999.99    0.00000     0.00            4.49112E-12    85.59    0.00000E+00     0.00
 -175.00    30.00     -21.70 -999.99  -21.70    0.00000     0.00  LINEAR    3.83985E-02  -110.70    0.00000E+00     0.00
 -170.00    30.00     -15.62 -999.99  -15.62    0.00000     0.00  LINEAR    7.73496E-02  -126.53    0.00000E+00     0.00
 -165.00    30.00     -12.02 -999.99  -12.02    0.00000     0.00  LINEAR    1.17013E-01  -142.51    0.00000E+00     0.00
 -160.00    30.00      -9.50 -999.99   -9.50    0.00000     0.00  LINEAR    1.56416E-01  -157.78    0.00000E+00     0.00
 -155.00    30.00      -7.49 -999.99   -7.49    0.00000     0.00  LINEAR    1.97152E-01  -172.44    0.00000E+00     0.00
 -150.00    30.00      -5.89 -999.99   -5.89    0.00000     0.00  LINEAR    2.37194E-01   173.19    0.00000E+00     0.00
 -145.00    30.00      -4.59 -999.99   -4.59    0.00000     0.00  LINEAR    2.75446E-01   159.87    0.00000E+00     0.00
 -140.00    30.00      -3.45 -999.99   -3.45    0.00000     0.00  LINEAR    3.13979E-01   147.41    0.00000E+00     0.00
 -135.00    30.00      -2.50 -999.99   -2.50    0.00000     0.00  LINEAR    3.50217E-01   135.48    0.00000E+00     0.00
 -130.00    30.00      -1.75 -999.99   -1.75    0.00000     0.00  LINEAR    3.81955E-01   124.62    0.00000E+00     0.00
 -125.00    30.00      -1.11 -999.99   -1.11    0.00000     0.00  LINEAR    4.11148E-01   115.03    0.00000E+00     0.00
 -120.00    30.00      -0.55 -999.99   -0.55    0.00000     0.00  LINEAR    4.38429E-01   106.45    0.00000E+00     0.00
 -115.00    30.00      -0.10 -999.99   -0.10    0.00000     0.00  LINEAR    4.61904E-01    98.85    0.00000E+00     0.00
 -110.00    30.00       0.24 -999.99    0.24    0.00000     0.00  LINEAR    4.80331E-01    92.45    0.00000E+00     0.00
 -105.00    30.00       0.49 -999.99    0.49    0.00000     0.00  LINEAR    4.93986E-01    87.41    0.00000E+00     0.00
 -100.00    30.00       0.65 -999.99    0.65    0.00000     0.00  LINEAR    5.03514E-01    83.82    0.00000E+00     0.00
  -95.00    30.00       0.75 -999.99    0.75    0.00000     0.00  LINEAR    5.09221E-01    81.66    0.00000E+00     0.00
  -90.00    30.00       0.78 -999.99    0.78    0.00000     0.00  LINEAR    5.11131E-01    80.94    0.00000E+00     0.00
  -85.00    30.00       0.75 -999.99    0.75    0.00000     0.00  LINEAR    5.09221E-01    81.66    0.00000E+00     0.00
  -80.00    30.00       0.65 -999.99    0.65    0.00000     0.00  LINEAR    5.03514E-01    83.82    0.00000E+00     0.00
  -75.00    30.00       0.49 -999.99    0.49    0.00000     0.00  LINEAR    4.93986E-01    87.41    0.00000E+00     0.00
  -70.00    30.00       0.24 -999.99    0.24    0.00000     0.00  LINEAR    4.80331E-01    92.45    0.00000E+00     0.00
  -65.00    30.00      -0.10 -999.99   -0.10    0.00000     0.00  LINEAR    4.61904E-01    98.85    0.00000E+00     0.00
  -60.00    30.00      -0.55 -999.99   -0.55    0.00000     0.00  LINEAR    4.38429E-01   106.45    0.00000E+00     0.00
  -55.00    30.00      -1.11 -999.99   -1.11    0.00000     0.00  LINEAR    4.11148E-01   115.03    0.00000E+00     0.00
  -50.00    30.00      -1.75 -999.99   -1.75    0.00000     0.00  LINEAR    3.81955E-01   124.62    0.00000E+00     0.00
  -45.00    30.00      -2.50 -999.99   -2.50    0.00000     0.00  LINEAR    3.50217E-01   135.48    0.00000E+00     0.00
  -40.00    30.00      -3.45 -999.99   -3.45    0.00000     0.00  LINEAR    3.13979E-01   147.41    0.00000E+00     0.00
  -35.00    30.00      -4.59 -999.99   -4.59    0.00000     0.00  LINEAR    2.75446E-01   159.87    0.00000E+00     0.00
  -30.00    30.00      -5.89 -999.99   -5.89    0.00000     0.00  LINEAR    2.37194E-01   173.19    0.00000E+00     0.00
  -25.00    30.00      -7.49 -999.99   -7.49    0.00000     0.00  LINEAR    1.97152E-01  -172.44    0.00000E+00     0.00
  -20.00    30.00      -9.50 -999.99   -9.50    0.00000     0.00  LINEAR    1.56416E-01  -157.78    0.00000E+00     0.00
  -15.00    30.00     -12.02 -999.99  -12.02    0.00000     0.00  LINEAR    1.17013E-01  -142.51    0.00000E+00     0.00
  -10.00    30.00     -15.62 -999.99  -15.62    0.00000     0.00  LINEAR    7.73496E-02  -126.53    0.00000E+00     0.00
   -5.00    30.00     -21.70 -999.99  -21.70    0.00000     0.00  LINEAR    3.83985E-02  -110.70    0.00000E+00     0.00
    0.00    30.00    -999.99 -999.99 -999.99    0.00000     0.00            0.00000E+00     0.00    0.00000E+00     0.00
 -180.00    35.00    -999.99 -999.99 -999.99    0.00000     0.00            4.49112E-12    85.59    0.00000E+00     0.00
 -175.00    35.00     -21.70 -999.99  -21.70    0.00000     0.00  LINEAR    3.84001E-02  -113.05    0.00000E+00     0.00
 -170.00    35.00     -15.60 -999.99  -15.60    0.00000     0.00  LINEAR    7.75493E-02  -131.29    0.00000E+00     0.00
 -165.00    35.00     -12.03 -999.99  -12.03    0.00000     0.00  LINEAR    1.16922E-01  -149.57    0.00000E+00     0.00
 -160.00    35.00      -9.48 -999.99   -9.48    0.00000     0.00  LINEAR    1.56760E-01  -166.87    0.00000E+00     0.00
 -155.00    35.00      -7.49 -999.99   -7.49    0.00000     0.00  LINEAR    1.97103E-01   176.02    0.00000E+00     0.00
 -150.00    35.00      -5.95 -999.99   -5.95    0.00000     0.00  LINEAR    2.35346E-01   159.90    0.00000E+00     0.00
 -145.00    35.00      -4.63 -999.99   -4.63    0.00000     0.00  LINEAR    2.73983E-01   144.65    0.00000E+00     0.00
 -140.00    35.00      -3.58 -999.99   -3.58    0.00000     0.00  LINEAR    3.09315E-01   129.91    0.00000E+00     0.00
 -135.00    35.00      -2.74 -999.99   -2.74    0.00000     0.00  LINEAR    3.40818E-01   116.52    0.00000E+00     0.00
 -130.00    35.00      -1.99 -999.99   -1.99    0.00000     0.00  LINEAR    3.71340E-01   104.13    0.00000E+00     0.00
[...]
  -70.00   340.00       0.75 -999.99    0.75    0.00000     0.00  LINEAR    5.09278E-01    20.00    0.00000E+00     0.00
  -65.00   340.00       0.31 -999.99    0.31    0.00000     0.00  LINEAR    4.83835E-01    16.16    0.00000E+00     0.00
  -60.00   340.00      -0.24 -999.99   -0.24    0.00000     0.00  LINEAR    4.54346E-01    11.57    0.00000E+00     0.00
  -55.00   340.00      -0.88 -999.99   -0.88    0.00000     0.00  LINEAR    4.22044E-01     6.26    0.00000E+00     0.00
  -50.00   340.00      -1.62 -999.99   -1.62    0.00000     0.00  LINEAR    3.87806E-01     0.13    0.00000E+00     0.00
  -45.00   340.00      -2.47 -999.99   -2.47    0.00000     0.00  LINEAR    3.51612E-01    -6.88    0.00000E+00     0.00
  -40.00   340.00      -3.48 -999.99   -3.48    0.00000     0.00  LINEAR    3.13073E-01   -14.71    0.00000E+00     0.00
  -35.00   340.00      -4.67 -999.99   -4.67    0.00000     0.00  LINEAR    2.72831E-01   -23.12    0.00000E+00     0.00
  -30.00   340.00      -6.05 -999.99   -6.05    0.00000     0.00  LINEAR    2.32677E-01   -31.91    0.00000E+00     0.00
  -25.00   340.00      -7.65 -999.99   -7.65    0.00000     0.00  LINEAR    1.93542E-01   -41.26    0.00000E+00     0.00
  -20.00   340.00      -9.60 -999.99   -9.60    0.00000     0.00  LINEAR    1.54583E-01   -51.35    0.00000E+00     0.00
  -15.00   340.00     -12.15 -999.99  -12.15    0.00000     0.00  LINEAR    1.15284E-01   -61.89    0.00000E+00     0.00
  -10.00   340.00     -15.72 -999.99  -15.72    0.00000     0.00  LINEAR    7.64466E-02   -72.47    0.00000E+00     0.00
   -5.00   340.00     -21.73 -999.99  -21.73    0.00000     0.00  LINEAR    3.82648E-02   -83.24    0.00000E+00     0.00
    0.00   340.00    -999.99 -999.99 -999.99    0.00000     0.00            0.00000E+00     0.00    0.00000E+00     0.00
 -180.00   345.00    -999.99 -999.99 -999.99    0.00000     0.00            4.49112E-12    85.59    0.00000E+00     0.00
 -175.00   345.00     -21.72 -999.99  -21.72    0.00000     0.00  LINEAR    3.83127E-02   -85.93    0.00000E+00     0.00
 -170.00   345.00     -15.71 -999.99  -15.71    0.00000     0.00  LINEAR    7.65135E-02   -77.71    0.00000E+00     0.00
 -165.00   345.00     -12.17 -999.99  -12.17    0.00000     0.00  LINEAR    1.15049E-01   -69.74    0.00000E+00     0.00
 -160.00   345.00      -9.62 -999.99   -9.62    0.00000     0.00  LINEAR    1.54315E-01   -61.91    0.00000E+00     0.00
 -155.00   345.00      -7.63 -999.99   -7.63    0.00000     0.00  LINEAR    1.94045E-01   -54.20    0.00000E+00     0.00
 -150.00   345.00      -6.02 -999.99   -6.02    0.00000     0.00  LINEAR    2.33610E-01   -46.80    0.00000E+00     0.00
 -145.00   345.00      -4.67 -999.99   -4.67    0.00000     0.00  LINEAR    2.72763E-01   -39.90    0.00000E+00     0.00
 -140.00   345.00      -3.51 -999.99   -3.51    0.00000     0.00  LINEAR    3.11734E-01   -33.59    0.00000E+00     0.00
 -135.00   345.00      -2.49 -999.99   -2.49    0.00000     0.00  LINEAR    3.50597E-01   -27.79    0.00000E+00     0.00
 -130.00   345.00      -1.59 -999.99   -1.59    0.00000     0.00  LINEAR    3.88772E-01   -22.45    0.00000E+00     0.00
 -125.00   345.00      -0.82 -999.99   -0.82    0.00000     0.00  LINEAR    4.25161E-01   -17.59    0.00000E+00     0.00
 -120.00   345.00      -0.16 -999.99   -0.16    0.00000     0.00  LINEAR    4.58613E-01   -13.26    0.00000E+00     0.00
 -115.00   345.00       0.38 -999.99    0.38    0.00000     0.00  LINEAR    4.88228E-01    -9.55    0.00000E+00     0.00
 -110.00   345.00       0.82 -999.99    0.82    0.00000     0.00  LINEAR    5.13368E-01    -6.50    0.00000E+00     0.00
 -105.00   345.00       1.16 -999.99    1.16    0.00000     0.00  LINEAR    5.33545E-01    -4.12    0.00000E+00     0.00
 -100.00   345.00       1.39 -999.99    1.39    0.00000     0.00  LINEAR    5.48332E-01    -2.42    0.00000E+00     0.00
  -95.00   345.00       1.53 -999.99    1.53    0.00000     0.00  LINEAR    5.57371E-01    -1.41    0.00000E+00     0.00
  -90.00   345.00       1.58 -999.99    1.58    0.00000     0.00  LINEAR    5.60414E-01    -1.07    0.00000E+00     0.00
  -85.00   345.00       1.53 -999.99    1.53    0.00000     0.00  LINEAR    5.57371E-01    -1.41    0.00000E+00     0.00
  -80.00   345.00       1.39 -999.99    1.39    0.00000     0.00  LINEAR    5.48332E-01    -2.42    0.00000E+00     0.00
  -75.00   345.00       1.16 -999.99    1.16    0.00000     0.00  LINEAR    5.33545E-01    -4.12    0.00000E+00     0.00
  -70.00   345.00       0.82 -999.99    0.82    0.00000     0.00  LINEAR    5.13368E-01    -6.50    0.00000E+00     0.00
  -65.00   345.00       0.38 -999.99    0.38    0.00000     0.00  LINEAR    4.88228E-01    -9.55    0.00000E+00     0.00
  -60.00   345.00      -0.16 -999.99   -0.16    0.00000     0.00  LINEAR    4.58613E-01   -13.26    0.00000E+00     0.00
  -55.00   345.00      -0.82 -999.99   -0.82    0.00000     0.00  LINEAR    4.25161E-01   -17.59    0.00000E+00     0.00
  -50.00   345.00      -1.59 -999.99   -1.59    0.00000     0.00  LINEAR    3.88772E-01   -22.45    0.00000E+00     0.00
  -45.00   345.00      -2.49 -999.99   -2.49    0.00000     0.00  LINEAR    3.50597E-01   -27.79    0.00000E+00     0.00
  -40.00   345.00      -3.51 -999.99   -3.51    0.00000     0.00  LINEAR    3.11734E-01   -33.59    0.00000E+00     0.00
  -35.00   345.00      -4.67 -999.99   -4.67    0.00000     0.00  LINEAR    2.72763E-01   -39.90    0.00000E+00     0.00
  -30.00   345.00      -6.02 -999.99   -6.02    0.00000     0.00  LINEAR    2.33610E-01   -46.80    0.00000E+00     0.00
  -25.00   345.00      -7.63 -999.99   -7.63    0.00000     0.00  LINEAR    1.94045E-01   -54.20    0.00000E+00     0.00
  -20.00   345.00      -9.62 -999.99   -9.62    0.00000     0.00  LINEAR    1.54315E-01   -61.91    0.00000E+00     0.00
  -15.00   345.00     -12.17 -999.99  -12.17    0.00000     0.00  LINEAR    1.15049E-01   -69.74    0.00000E+00     0.00
  -10.00   345.00     -15.71 -999.99  -15.71    0.00000     0.00  LINEAR    7.65135E-02   -77.71    0.00000E+00     0.00
   -5.00   345.00     -21.72 -999.99  -21.72    0.00000     0.00  LINEAR    3.83127E-02   -85.93    0.00000E+00     0.00
    0.00   345.00    -999.99 -999.99 -999.99    0.00000     0.00            0.00000E+00     0.00    0.00000E+00     0.00
 -180.00   350.00    -999.99 -999.99 -999.99    0.00000     0.00            4.49112E-12    85.59    0.00000E+00     0.00
 -175.00   350.00     -21.71 -999.99  -21.71    0.00000     0.00  LINEAR    3.83590E-02   -88.71    0.00000E+00     0.00
 -170.00   350.00     -15.69 -999.99  -15.69    0.00000     0.00  LINEAR    7.66799E-02   -83.12    0.00000E+00     0.00
 -165.00   350.00     -12.16 -999.99  -12.16    0.00000     0.00  LINEAR    1.15131E-01   -77.72    0.00000E+00     0.00
 -160.00   350.00      -9.64 -999.99   -9.64    0.00000     0.00  LINEAR    1.53975E-01   -72.50    0.00000E+00     0.00
 -155.00   350.00      -7.66 -999.99   -7.66    0.00000     0.00  LINEAR    1.93400E-01   -67.45    0.00000E+00     0.00
 -150.00   350.00      -6.03 -999.99   -6.03    0.00000     0.00  LINEAR    2.33343E-01   -62.57    0.00000E+00     0.00
 -145.00   350.00      -4.65 -999.99   -4.65    0.00000     0.00  LINEAR    2.73458E-01   -57.88    0.00000E+00     0.00
 -140.00   350.00      -3.47 -999.99   -3.47    0.00000     0.00  LINEAR    3.13212E-01   -53.43    0.00000E+00     0.00
 -135.00   350.00      -2.46 -999.99   -2.46    0.00000     0.00  LINEAR    3.52021E-01   -49.31    0.00000E+00     0.00
 -130.00   350.00      -1.58 -999.99   -1.58    0.00000     0.00  LINEAR    3.89327E-01   -45.57    0.00000E+00     0.00
 -125.00   350.00      -0.83 -999.99   -0.83    0.00000     0.00  LINEAR    4.24581E-01   -42.23    0.00000E+00     0.00
 -120.00   350.00      -0.19 -999.99   -0.19    0.00000     0.00  LINEAR    4.57199E-01   -39.33    0.00000E+00     0.00
 -115.00   350.00       0.35 -999.99    0.35    0.00000     0.00  LINEAR    4.86526E-01   -36.86    0.00000E+00     0.00
 -110.00   350.00       0.79 -999.99    0.79    0.00000     0.00  LINEAR    5.11849E-01   -34.83    0.00000E+00     0.00
 -105.00   350.00       1.14 -999.99    1.14    0.00000     0.00  LINEAR    5.32455E-01   -33.25    0.00000E+00     0.00
 -100.00   350.00       1.38 -999.99    1.38    0.00000     0.00  LINEAR    5.47695E-01   -32.11    0.00000E+00     0.00
  -95.00   350.00       1.53 -999.99    1.53    0.00000     0.00  LINEAR    5.57058E-01   -31.42    0.00000E+00     0.00
  -90.00   350.00       1.58 -999.99    1.58    0.00000     0.00  LINEAR    5.60217E-01   -31.19    0.00000E+00     0.00
  -85.00   350.00       1.53 -999.99    1.53    0.00000     0.00  LINEAR    5.57058E-01   -31.42    0.00000E+00     0.00
  -80.00   350.00       1.38 -999.99    1.38    0.00000     0.00  LINEAR    5.47695E-01   -32.11    0.00000E+00     0.00
  -75.00   350.00       1.14 -999.99    1.14    0.00000     0.00  LINEAR    5.32455E-01   -33.25    0.00000E+00     0.00
  -70.00   350.00       0.79 -999.99    0.79    0.00000     0.00  LINEAR    5.11849E-01   -34.83    0.00000E+00     0.00
  -65.00   350.00       0.35 -999.99    0.35    0.00000     0.00  LINEAR    4.86526E-01   -36.86    0.00000E+00     0.00
  -60.00   350.00      -0.19 -999.99   -0.19    0.00000     0.00  LINEAR    4.57199E-01   -39.33    0.00000E+00     0.00
  -55.00   350.00      -0.83 -999.99   -0.83    0.00000     0.00  LINEAR    4.24581E-01   -42.23    0.00000E+00     0.00
  -50.00   350.00      -1.58 -999.99   -1.58    0.00000     0.00  LINEAR    3.89327E-01   -45.57    0.00000E+00     0.00
  -45.00   350.00      -2.46 -999.99   -2.46    0.00000     0.00  LINEAR    3.52021E-01   -49.31    0.00000E+00     0.00
  -40.00   350.00      -3.47 -999.99   -3.47    0.00000     0.00  LINEAR    3.13212E-01   -53.43    0.00000E+00     0.00
  -35.00   350.00      -4.65 -999.99   -4.65    0.00000     0.00  LINEAR    2.73458E-01   -57.88    0.00000E+00     0.00
  -30.00   350.00      -6.03 -999.99   -6.03    0.00000     0.00  LINEAR    2.33343E-01   -62.57    0.00000E+00     0.00
  -25.00   350.00      -7.66 -999.99   -7.66    0.00000     0.00  LINEAR    1.93400E-01   -67.45    0.00000E+00     0.00
  -20.00   350.00      -9.64 -999.99   -9.64    0.00000     0.00  LINEAR    1.53975E-01   -72.50    0.00000E+00     0.00
  -15.00   350.00     -12.16 -999.99  -12.16    0.00000     0.00  LINEAR    1.15131E-01   -77.72    0.00000E+00     0.00
  -10.00   350.00     -15.69 -999.99  -15.69    0.00000     0.00  LINEAR    7.66799E-02   -83.12    0.00000E+00     0.00
   -5.00   350.00     -21.71 -999.99  -21.71    0.00000     0.00  LINEAR    3.83590E-02   -88.71    0.00000E+00     0.00
    0.00   350.00    -999.99 -999.99 -999.99    0.00000     0.00            0.00000E+00     0.00    0.00000E+00     0.00
 -180.00   355.00    -999.99 -999.99 -999.99    0.00000     0.00            4.49112E-12    85.59    0.00000E+00     0.00
 -175.00   355.00     -21.70 -999.99  -21.70    0.00000     0.00  LINEAR    3.83979E-02   -91.54    0.00000E+00     0.00
 -170.00   355.00     -15.67 -999.99  -15.67    0.00000     0.00  LINEAR    7.68734E-02   -88.71    0.00000E+00     0.00
 -165.00   355.00     -12.13 -999.99  -12.13    0.00000     0.00  LINEAR    1.15533E-01   -85.95    0.00000E+00     0.00
 -160.00   355.00      -9.61 -999.99   -9.61    0.00000     0.00  LINEAR    1.54455E-01   -83.27    0.00000E+00     0.00
 -155.00   355.00      -7.65 -999.99   -7.65    0.00000     0.00  LINEAR    1.93666E-01   -80.71    0.00000E+00     0.00
 -150.00   355.00      -6.04 -999.99   -6.04    0.00000     0.00  LINEAR    2.33117E-01   -78.27    0.00000E+00     0.00
 -145.00   355.00      -4.68 -999.99   -4.68    0.00000     0.00  LINEAR    2.72655E-01   -75.97    0.00000E+00     0.00
 -140.00   355.00      -3.50 -999.99   -3.50    0.00000     0.00  LINEAR    3.12000E-01   -73.81    0.00000E+00     0.00
 -135.00   355.00      -2.49 -999.99   -2.49    0.00000     0.00  LINEAR    3.50739E-01   -71.81    0.00000E+00     0.00
 -130.00   355.00      -1.60 -999.99   -1.60    0.00000     0.00  LINEAR    3.88326E-01   -69.97    0.00000E+00     0.00
 -125.00   355.00      -0.84 -999.99   -0.84    0.00000     0.00  LINEAR    4.24100E-01   -68.32    0.00000E+00     0.00
 -120.00   355.00      -0.18 -999.99   -0.18    0.00000     0.00  LINEAR    4.57316E-01   -66.86    0.00000E+00     0.00
 -115.00   355.00       0.37 -999.99    0.37    0.00000     0.00  LINEAR    4.87188E-01   -65.60    0.00000E+00     0.00
 -110.00   355.00       0.81 -999.99    0.81    0.00000     0.00  LINEAR    5.12933E-01   -64.55    0.00000E+00     0.00
 -105.00   355.00       1.16 -999.99    1.16    0.00000     0.00  LINEAR    5.33822E-01   -63.72    0.00000E+00     0.00
 -100.00   355.00       1.41 -999.99    1.41    0.00000     0.00  LINEAR    5.49231E-01   -63.13    0.00000E+00     0.00
  -95.00   355.00       1.56 -999.99    1.56    0.00000     0.00  LINEAR    5.58679E-01   -62.77    0.00000E+00     0.00
  -90.00   355.00       1.60 -999.99    1.60    0.00000     0.00  LINEAR    5.61862E-01   -62.65    0.00000E+00     0.00
  -85.00   355.00       1.56 -999.99    1.56    0.00000     0.00  LINEAR    5.58679E-01   -62.77    0.00000E+00     0.00
  -80.00   355.00       1.41 -999.99    1.41    0.00000     0.00  LINEAR    5.49231E-01   -63.13    0.00000E+00     0.00
  -75.00   355.00       1.16 -999.99    1.16    0.00000     0.00  LINEAR    5.33822E-01   -63.72    0.00000E+00     0.00
  -70.00   355.00       0.81 -999.99    0.81    0.00000     0.00  LINEAR    5.12933E-01   -64.55    0.00000E+00     0.00
  -65.00   355.00       0.37 -999.99    0.37    0.00000     0.00  LINEAR    4.87188E-01   -65.60    0.00000E+00     0.00
  -60.00   355.00      -0.18 -999.99   -0.18    0.00000     0.00  LINEAR    4.57316E-01   -66.86    0.00000E+00     0.00
  -55.00   355.00      -0.84 -999.99   -0.84    0.00000     0.00  LINEAR    4.24100E-01   -68.32    0.00000E+00     0.00
  -50.00   355.00      -1.60 -999.99   -1.60    0.00000     0.00  LINEAR    3.88326E-01   -69.97    0.00000E+00     0.00
  -45.00   355.00      -2.49 -999.99   -2.49    0.00000     0.00  LINEAR    3.50739E-01   -71.81    0.00000E+00     0.00
  -40.00   355.00      -3.50 -999.99   -3.50    0.00000     0.00  LINEAR    3.12000E-01   -73.81    0.00000E+00     0.00
  -35.00   355.00      -4.68 -999.99   -4.68    0.00000     0.00  LINEAR    2.72655E-01   -75.97    0.00000E+00     0.00
  -30.00   355.00      -6.04 -999.99   -6.04    0.00000     0.00  LINEAR    2.33117E-01   -78.27    0.00000E+00     0.00
  -25.00   355.00      -7.65 -999.99   -7.65    0.00000     0.00  LINEAR    1.93666E-01   -80.71    0.00000E+00     0.00
  -20.00   355.00      -9.61 -999.99   -9.61    0.00000     0.00  LINEAR    1.54455E-01   -83.27    0.00000E+00     0.00
  -15.00   355.00     -12.13 -999.99  -12.13    0.00000     0.00  LINEAR    1.15533E-01   -85.95    0.00000E+00     0.00
  -10.00   355.00     -15.67 -999.99  -15.67    0.00000     0.00  LINEAR    7.68734E-02   -88.71    0.00000E+00     0.00
   -5.00   355.00     -21.70 -999.99  -21.70    0.00000     0.00  LINEAR    3.83979E-02   -91.54    0.00000E+00     0.00
    0.00   355.00    -999.99 -999.99 -999.99    0.00000     0.00            0.00000E+00     0.00    0.00000E+00     0.00
 -180.00   360.00    -999.99 -999.99 -999.99    0.00000     0.00            4.49112E-12    85.59    0.00000E+00     0.00
 -175.00   360.00     -21.70 -999.99  -21.70    0.00000     0.00  LINEAR    3.84250E-02   -94.41    0.00000E+00     0.00
 -170.00   360.00     -15.66 -999.99  -15.66    0.00000     0.00  LINEAR    7.70058E-02   -94.42    0.00000E+00     0.00
 -165.00   360.00     -12.11 -999.99  -12.11    0.00000     0.00  LINEAR    1.15872E-01   -94.43    0.00000E+00     0.00
 -160.00   360.00      -9.58 -999.99   -9.58    0.00000     0.00  LINEAR    1.55103E-01   -94.45    0.00000E+00     0.00
 -155.00   360.00      -7.60 -999.99   -7.60    0.00000     0.00  LINEAR    1.94704E-01   -94.47    0.00000E+00     0.00
 -150.00   360.00      -5.98 -999.99   -5.98    0.00000     0.00  LINEAR    2.34585E-01   -94.49    0.00000E+00     0.00
 -145.00   360.00      -4.62 -999.99   -4.62    0.00000     0.00  LINEAR    2.74548E-01   -94.51    0.00000E+00     0.00
 -140.00   360.00      -3.44 -999.99   -3.44    0.00000     0.00  LINEAR    3.14273E-01   -94.53    0.00000E+00     0.00
 -135.00   360.00      -2.42 -999.99   -2.42    0.00000     0.00  LINEAR    3.53319E-01   -94.56    0.00000E+00     0.00
 -130.00   360.00      -1.54 -999.99   -1.54    0.00000     0.00  LINEAR    3.91130E-01   -94.58    0.00000E+00     0.00
 -125.00   360.00      -0.78 -999.99   -0.78    0.00000     0.00  LINEAR    4.27047E-01   -94.61    0.00000E+00     0.00
 -120.00   360.00      -0.13 -999.99   -0.13    0.00000     0.00  LINEAR    4.60341E-01   -94.63    0.00000E+00     0.00
 -115.00   360.00       0.42 -999.99    0.42    0.00000     0.00  LINEAR    4.90243E-01   -94.64    0.00000E+00     0.00
 -110.00   360.00       0.86 -999.99    0.86    0.00000     0.00  LINEAR    5.15990E-01   -94.66    0.00000E+00     0.00
 -105.00   360.00       1.21 -999.99    1.21    0.00000     0.00  LINEAR    5.36868E-01   -94.67    0.00000E+00     0.00
 -100.00   360.00       1.45 -999.99    1.45    0.00000     0.00  LINEAR    5.52263E-01   -94.68    0.00000E+00     0.00
  -95.00   360.00       1.60 -999.99    1.60    0.00000     0.00  LINEAR    5.61700E-01   -94.69    0.00000E+00     0.00
  -90.00   360.00       1.65 -999.99    1.65    0.00000     0.00  LINEAR    5.64879E-01   -94.69    0.00000E+00     0.00
  -85.00   360.00       1.60 -999.99    1.60    0.00000     0.00  LINEAR    5.61700E-01   -94.69    0.00000E+00     0.00
  -80.00   360.00       1.45 -999.99    1.45    0.00000     0.00  LINEAR    5.52263E-01   -94.68    0.00000E+00     0.00
  -75.00   360.00       1.21 -999.99    1.21    0.00000     0.00  LINEAR    5.36868E-01   -94.67    0.00000E+00     0.00
  -70.00   360.00       0.86 -999.99    0.86    0.00000     0.00  LINEAR    5.15990E-01   -94.66    0.00000E+00     0.00
  -65.00   360.00       0.42 -999.99    0.42    0.00000     0.00  LINEAR    4.90243E-01   -94.64    0.00000E+00     0.00
  -60.00   360.00      -0.13 -999.99   -0.13    0.00000     0.00  LINEAR    4.60341E-01   -94.63    0.00000E+00     0.00
  -55.00   360.00      -0.78 -999.99   -0.78    0.00000     0.00  LINEAR    4.27047E-01   -94.61    0.00000E+00     0.00
  -50.00   360.00      -1.54 -999.99   -1.54    0.00000     0.00  LINEAR    3.91130E-01   -94.58    0.00000E+00     0.00
  -45.00   360.00      -2.42 -999.99   -2.42    0.00000     0.00  LINEAR    3.53319E-01   -94.56    0.00000E+00     0.00
  -40.00   360.00      -3.44 -999.99   -3.44    0.00000     0.00  LINEAR    3.14273E-01   -94.53    0.00000E+00     0.00
  -35.00   360.00      -4.62 -999.99   -4.62    0.00000     0.00  LINEAR    2.74548E-01   -94.51    0.00000E+00     0.00
  -30.00   360.00      -5.98 -999.99   -5.98    0.00000     0.00  LINEAR    2.34585E-01   -94.49    0.00000E+00     0.00
  -25.00   360.00      -7.60 -999.99   -7.60    0.00000     0.00  LINEAR    1.94704E-01   -94.47    0.00000E+00     0.00
  -20.00   360.00      -9.58 -999.99   -9.58    0.00000     0.00  LINEAR    1.55103E-01   -94.45    0.00000E+00     0.00
  -15.00   360.00     -12.11 -999.99  -12.11    0.00000     0.00  LINEAR    1.15872E-01   -94.43    0.00000E+00     0.00
  -10.00   360.00     -15.66 -999.99  -15.66    0.00000     0.00  LINEAR    7.70058E-02   -94.42    0.00000E+00     0.00
   -5.00   360.00     -21.70 -999.99  -21.70    0.00000     0.00  LINEAR    3.84250E-02   -94.41    0.00000E+00     0.00
    0.00   360.00    -999.99 -999.99 -999.99    0.00000     0.00            0.00000E+00     0.00    0.00000E+00     0.00


   AVERAGE POWER GAIN= 5.81416E-01       SOLID ANGLE USED IN AVERAGING=( 4.0000)*PI STERADIANS.








 ***** DATA CARD NO. 26   EN   0    37    73  1003 -1.80000E+02  0.00000E+00  5.00000E+00  5.00000E+00  0.00000E+00  0.00000E+00

 RUN TIME =     0.328
