1



                                 *********************************************

                                    NUMERICAL ELECTROMAGNETICS CODE (NEC-2D)

                                 *********************************************




                                     - - - - COMMENTS - - - -


                                                                                                     
                          forw:-999, 0 ; back: 0, 0                                                  
                                                                                                     




                                 - - - STRUCTURE SPECIFICATION - - -

                                     COORDINATES MUST BE INPUT IN
                                     METERS OR BE SCALED TO METERS
                                     BEFORE STRUCTURE INPUT IS ENDED


  WIRE                                                                               NO. OF    FIRST  LAST     TAG
  NO.        X1         Y1         Z1          X2         Y2         Z2      RADIUS   SEG.     SEG.   SEG.     NO.
     1    0.00000    0.00000   -0.17430     0.00000    0.00000    0.17430    0.00010      9        1     9       1
     2    0.00000    0.34860   -0.17430     0.00000    0.34860    0.17430    0.00010      9       10    18       2
     3    0.00000    0.69719   -0.17430     0.00000    0.69719    0.17430    0.00010      9       19    27       3
     4    0.00000    1.04579   -0.17430     0.00000    1.04579    0.17430    0.00010      9       28    36       4
     5    0.00000    1.39438   -0.17430     0.00000    1.39438    0.17430    0.00010      9       37    45       5
     6    0.00000    1.74298   -0.17430     0.00000    1.74298    0.17430    0.00010      9       46    54       6
     7    0.00000    2.09158   -0.17430     0.00000    2.09158    0.17430    0.00010      9       55    63       7
     8    0.00000    2.44017   -0.17430     0.00000    2.44017    0.17430    0.00010      9       64    72       8
     9    0.00000    2.78877   -0.17430     0.00000    2.78877    0.17430    0.00010      9       73    81       9
    10    0.00000    3.13736   -0.17430     0.00000    3.13736    0.17430    0.00010      9       82    90      10
    11    0.00000    3.48596   -0.17430     0.00000    3.48596    0.17430    0.00010      9       91    99      11
    12    0.00000    3.83455   -0.17430     0.00000    3.83455    0.17430    0.00010      9      100   108      12
    13    0.00000    4.18315   -0.17430     0.00000    4.18315    0.17430    0.00010      9      109   117      13
    14    0.00000    4.53175   -0.17430     0.00000    4.53175    0.17430    0.00010      9      118   126      14
    15    0.00000    4.88034   -0.17430     0.00000    4.88034    0.17430    0.00010      9      127   135      15
    16    0.00000    5.22894   -0.17430     0.00000    5.22894    0.17430    0.00010      9      136   144      16
    17    0.00000    5.57753   -0.17430     0.00000    5.57753    0.17430    0.00010      9      145   153      17
    18    0.00000    5.92613   -0.17430     0.00000    5.92613    0.17430    0.00010      9      154   162      18
    19    0.00000    6.27473   -0.17430     0.00000    6.27473    0.17430    0.00010      9      163   171      19
    20    0.00000    6.62332   -0.17430     0.00000    6.62332    0.17430    0.00010      9      172   180      20

   TOTAL SEGMENTS USED=  180     NO. SEG. IN A SYMMETRIC CELL=  180     SYMMETRY FLAG=  0


         - MULTIPLE WIRE JUNCTIONS -
 JUNCTION    SEGMENTS  (- FOR END 1, + FOR END 2)
  NONE




                                 - - - - SEGMENTATION DATA - - - -

                                        COORDINATES IN METERS

                         I+ AND I- INDICATE THE SEGMENTS BEFORE AND AFTER I


  SEG.   COORDINATES OF SEG. CENTER     SEG.     ORIENTATION ANGLES    WIRE    CONNECTION DATA   TAG
  NO.       X         Y         Z       LENGTH     ALPHA     BETA      RADIUS    I-   I    I+    NO.
     1   0.00000   0.00000  -0.15493   0.03873   90.00000   0.00000   0.00010     0    1    2      1
     2   0.00000   0.00000  -0.11620   0.03873   90.00000   0.00000   0.00010     1    2    3      1
     3   0.00000   0.00000  -0.07747   0.03873   90.00000   0.00000   0.00010     2    3    4      1
     4   0.00000   0.00000  -0.03873   0.03873   90.00000   0.00000   0.00010     3    4    5      1
     5   0.00000   0.00000   0.00000   0.03873   90.00000   0.00000   0.00010     4    5    6      1
     6   0.00000   0.00000   0.03873   0.03873   90.00000   0.00000   0.00010     5    6    7      1
     7   0.00000   0.00000   0.07747   0.03873   90.00000   0.00000   0.00010     6    7    8      1
     8   0.00000   0.00000   0.11620   0.03873   90.00000   0.00000   0.00010     7    8    9      1
     9   0.00000   0.00000   0.15493   0.03873   90.00000   0.00000   0.00010     8    9    0      1
    10   0.00000   0.34860  -0.15493   0.03873   90.00000   0.00000   0.00010     0   10   11      2
    11   0.00000   0.34860  -0.11620   0.03873   90.00000   0.00000   0.00010    10   11   12      2
    12   0.00000   0.34860  -0.07747   0.03873   90.00000   0.00000   0.00010    11   12   13      2
    13   0.00000   0.34860  -0.03873   0.03873   90.00000   0.00000   0.00010    12   13   14      2
    14   0.00000   0.34860   0.00000   0.03873   90.00000   0.00000   0.00010    13   14   15      2
    15   0.00000   0.34860   0.03873   0.03873   90.00000   0.00000   0.00010    14   15   16      2
    16   0.00000   0.34860   0.07747   0.03873   90.00000   0.00000   0.00010    15   16   17      2
    17   0.00000   0.34860   0.11620   0.03873   90.00000   0.00000   0.00010    16   17   18      2
    18   0.00000   0.34860   0.15493   0.03873   90.00000   0.00000   0.00010    17   18    0      2
    19   0.00000   0.69719  -0.15493   0.03873   90.00000   0.00000   0.00010     0   19   20      3
    20   0.00000   0.69719  -0.11620   0.03873   90.00000   0.00000   0.00010    19   20   21      3
    21   0.00000   0.69719  -0.07747   0.03873   90.00000   0.00000   0.00010    20   21   22      3
    22   0.00000   0.69719  -0.03873   0.03873   90.00000   0.00000   0.00010    21   22   23      3
    23   0.00000   0.69719   0.00000   0.03873   90.00000   0.00000   0.00010    22   23   24      3
    24   0.00000   0.69719   0.03873   0.03873   90.00000   0.00000   0.00010    23   24   25      3
    25   0.00000   0.69719   0.07747   0.03873   90.00000   0.00000   0.00010    24   25   26      3
    26   0.00000   0.69719   0.11620   0.03873   90.00000   0.00000   0.00010    25   26   27      3
    27   0.00000   0.69719   0.15493   0.03873   90.00000   0.00000   0.00010    26   27    0      3
    28   0.00000   1.04579  -0.15493   0.03873   90.00000   0.00000   0.00010     0   28   29      4
    29   0.00000   1.04579  -0.11620   0.03873   90.00000   0.00000   0.00010    28   29   30      4
    30   0.00000   1.04579  -0.07747   0.03873   90.00000   0.00000   0.00010    29   30   31      4
    31   0.00000   1.04579  -0.03873   0.03873   90.00000   0.00000   0.00010    30   31   32      4
    32   0.00000   1.04579   0.00000   0.03873   90.00000   0.00000   0.00010    31   32   33      4
    33   0.00000   1.04579   0.03873   0.03873   90.00000   0.00000   0.00010    32   33   34      4
    34   0.00000   1.04579   0.07747   0.03873   90.00000   0.00000   0.00010    33   34   35      4
    35   0.00000   1.04579   0.11620   0.03873   90.00000   0.00000   0.00010    34   35   36      4
    36   0.00000   1.04579   0.15493   0.03873   90.00000   0.00000   0.00010    35   36    0      4
    37   0.00000   1.39438  -0.15493   0.03873   90.00000   0.00000   0.00010     0   37   38      5
    38   0.00000   1.39438  -0.11620   0.03873   90.00000   0.00000   0.00010    37   38   39      5
    39   0.00000   1.39438  -0.07747   0.03873   90.00000   0.00000   0.00010    38   39   40      5
    40   0.00000   1.39438  -0.03873   0.03873   90.00000   0.00000   0.00010    39   40   41      5
    41   0.00000   1.39438   0.00000   0.03873   90.00000   0.00000   0.00010    40   41   42      5
    42   0.00000   1.39438   0.03873   0.03873   90.00000   0.00000   0.00010    41   42   43      5
    43   0.00000   1.39438   0.07747   0.03873   90.00000   0.00000   0.00010    42   43   44      5
    44   0.00000   1.39438   0.11620   0.03873   90.00000   0.00000   0.00010    43   44   45      5
    45   0.00000   1.39438   0.15493   0.03873   90.00000   0.00000   0.00010    44   45    0      5
    46   0.00000   1.74298  -0.15493   0.03873   90.00000   0.00000   0.00010     0   46   47      6
    47   0.00000   1.74298  -0.11620   0.03873   90.00000   0.00000   0.00010    46   47   48      6
    48   0.00000   1.74298  -0.07747   0.03873   90.00000   0.00000   0.00010    47   48   49      6
    49   0.00000   1.74298  -0.03873   0.03873   90.00000   0.00000   0.00010    48   49   50      6
    50   0.00000   1.74298   0.00000   0.03873   90.00000   0.00000   0.00010    49   50   51      6
    51   0.00000   1.74298   0.03873   0.03873   90.00000   0.00000   0.00010    50   51   52      6
    52   0.00000   1.74298   0.07747   0.03873   90.00000   0.00000   0.00010    51   52   53      6
    53   0.00000   1.74298   0.11620   0.03873   90.00000   0.00000   0.00010    52   53   54      6
    54   0.00000   1.74298   0.15493   0.03873   90.00000   0.00000   0.00010    53   54    0      6
    55   0.00000   2.09158  -0.15493   0.03873   90.00000   0.00000   0.00010     0   55   56      7
    56   0.00000   2.09158  -0.11620   0.03873   90.00000   0.00000   0.00010    55   56   57      7
    57   0.00000   2.09158  -0.07747   0.03873   90.00000   0.00000   0.00010    56   57   58      7
    58   0.00000   2.09158  -0.03873   0.03873   90.00000   0.00000   0.00010    57   58   59      7
    59   0.00000   2.09158   0.00000   0.03873   90.00000   0.00000   0.00010    58   59   60      7
    60   0.00000   2.09158   0.03873   0.03873   90.00000   0.00000   0.00010    59   60   61      7
    61   0.00000   2.09158   0.07747   0.03873   90.00000   0.00000   0.00010    60   61   62      7
    62   0.00000   2.09158   0.11620   0.03873   90.00000   0.00000   0.00010    61   62   63      7
    63   0.00000   2.09158   0.15493   0.03873   90.00000   0.00000   0.00010    62   63    0      7
    64   0.00000   2.44017  -0.15493   0.03873   90.00000   0.00000   0.00010     0   64   65      8
    65   0.00000   2.44017  -0.11620   0.03873   90.00000   0.00000   0.00010    64   65   66      8
    66   0.00000   2.44017  -0.07747   0.03873   90.00000   0.00000   0.00010    65   66   67      8
    67   0.00000   2.44017  -0.03873   0.03873   90.00000   0.00000   0.00010    66   67   68      8
    68   0.00000   2.44017   0.00000   0.03873   90.00000   0.00000   0.00010    67   68   69      8
    69   0.00000   2.44017   0.03873   0.03873   90.00000   0.00000   0.00010    68   69   70      8
    70   0.00000   2.44017   0.07747   0.03873   90.00000   0.00000   0.00010    69   70   71      8
    71   0.00000   2.44017   0.11620   0.03873   90.00000   0.00000   0.00010    70   71   72      8
    72   0.00000   2.44017   0.15493   0.03873   90.00000   0.00000   0.00010    71   72    0      8
    73   0.00000   2.78877  -0.15493   0.03873   90.00000   0.00000   0.00010     0   73   74      9
    74   0.00000   2.78877  -0.11620   0.03873   90.00000   0.00000   0.00010    73   74   75      9
    75   0.00000   2.78877  -0.07747   0.03873   90.00000   0.00000   0.00010    74   75   76      9
    76   0.00000   2.78877  -0.03873   0.03873   90.00000   0.00000   0.00010    75   76   77      9
    77   0.00000   2.78877   0.00000   0.03873   90.00000   0.00000   0.00010    76   77   78      9
    78   0.00000   2.78877   0.03873   0.03873   90.00000   0.00000   0.00010    77   78   79      9
    79   0.00000   2.78877   0.07747   0.03873   90.00000   0.00000   0.00010    78   79   80      9
    80   0.00000   2.78877   0.11620   0.03873   90.00000   0.00000   0.00010    79   80   81      9
    81   0.00000   2.78877   0.15493   0.03873   90.00000   0.00000   0.00010    80   81    0      9
    82   0.00000   3.13736  -0.15493   0.03873   90.00000   0.00000   0.00010     0   82   83     10
    83   0.00000   3.13736  -0.11620   0.03873   90.00000   0.00000   0.00010    82   83   84     10
    84   0.00000   3.13736  -0.07747   0.03873   90.00000   0.00000   0.00010    83   84   85     10
    85   0.00000   3.13736  -0.03873   0.03873   90.00000   0.00000   0.00010    84   85   86     10
    86   0.00000   3.13736   0.00000   0.03873   90.00000   0.00000   0.00010    85   86   87     10
    87   0.00000   3.13736   0.03873   0.03873   90.00000   0.00000   0.00010    86   87   88     10
    88   0.00000   3.13736   0.07747   0.03873   90.00000   0.00000   0.00010    87   88   89     10
    89   0.00000   3.13736   0.11620   0.03873   90.00000   0.00000   0.00010    88   89   90     10
    90   0.00000   3.13736   0.15493   0.03873   90.00000   0.00000   0.00010    89   90    0     10
    91   0.00000   3.48596  -0.15493   0.03873   90.00000   0.00000   0.00010     0   91   92     11
    92   0.00000   3.48596  -0.11620   0.03873   90.00000   0.00000   0.00010    91   92   93     11
    93   0.00000   3.48596  -0.07747   0.03873   90.00000   0.00000   0.00010    92   93   94     11
    94   0.00000   3.48596  -0.03873   0.03873   90.00000   0.00000   0.00010    93   94   95     11
    95   0.00000   3.48596   0.00000   0.03873   90.00000   0.00000   0.00010    94   95   96     11
    96   0.00000   3.48596   0.03873   0.03873   90.00000   0.00000   0.00010    95   96   97     11
    97   0.00000   3.48596   0.07747   0.03873   90.00000   0.00000   0.00010    96   97   98     11
    98   0.00000   3.48596   0.11620   0.03873   90.00000   0.00000   0.00010    97   98   99     11
    99   0.00000   3.48596   0.15493   0.03873   90.00000   0.00000   0.00010    98   99    0     11
   100   0.00000   3.83455  -0.15493   0.03873   90.00000   0.00000   0.00010     0  100  101     12
   101   0.00000   3.83455  -0.11620   0.03873   90.00000   0.00000   0.00010   100  101  102     12
   102   0.00000   3.83455  -0.07747   0.03873   90.00000   0.00000   0.00010   101  102  103     12
   103   0.00000   3.83455  -0.03873   0.03873   90.00000   0.00000   0.00010   102  103  104     12
   104   0.00000   3.83455   0.00000   0.03873   90.00000   0.00000   0.00010   103  104  105     12
   105   0.00000   3.83455   0.03873   0.03873   90.00000   0.00000   0.00010   104  105  106     12
   106   0.00000   3.83455   0.07747   0.03873   90.00000   0.00000   0.00010   105  106  107     12
   107   0.00000   3.83455   0.11620   0.03873   90.00000   0.00000   0.00010   106  107  108     12
   108   0.00000   3.83455   0.15493   0.03873   90.00000   0.00000   0.00010   107  108    0     12
   109   0.00000   4.18315  -0.15493   0.03873   90.00000   0.00000   0.00010     0  109  110     13
   110   0.00000   4.18315  -0.11620   0.03873   90.00000   0.00000   0.00010   109  110  111     13
   111   0.00000   4.18315  -0.07747   0.03873   90.00000   0.00000   0.00010   110  111  112     13
   112   0.00000   4.18315  -0.03873   0.03873   90.00000   0.00000   0.00010   111  112  113     13
   113   0.00000   4.18315   0.00000   0.03873   90.00000   0.00000   0.00010   112  113  114     13
   114   0.00000   4.18315   0.03873   0.03873   90.00000   0.00000   0.00010   113  114  115     13
   115   0.00000   4.18315   0.07747   0.03873   90.00000   0.00000   0.00010   114  115  116     13
   116   0.00000   4.18315   0.11620   0.03873   90.00000   0.00000   0.00010   115  116  117     13
   117   0.00000   4.18315   0.15493   0.03873   90.00000   0.00000   0.00010   116  117    0     13
   118   0.00000   4.53175  -0.15493   0.03873   90.00000   0.00000   0.00010     0  118  119     14
   119   0.00000   4.53175  -0.11620   0.03873   90.00000   0.00000   0.00010   118  119  120     14
   120   0.00000   4.53175  -0.07747   0.03873   90.00000   0.00000   0.00010   119  120  121     14
   121   0.00000   4.53175  -0.03873   0.03873   90.00000   0.00000   0.00010   120  121  122     14
   122   0.00000   4.53175   0.00000   0.03873   90.00000   0.00000   0.00010   121  122  123     14
   123   0.00000   4.53175   0.03873   0.03873   90.00000   0.00000   0.00010   122  123  124     14
   124   0.00000   4.53175   0.07747   0.03873   90.00000   0.00000   0.00010   123  124  125     14
   125   0.00000   4.53175   0.11620   0.03873   90.00000   0.00000   0.00010   124  125  126     14
   126   0.00000   4.53175   0.15493   0.03873   90.00000   0.00000   0.00010   125  126    0     14
   127   0.00000   4.88034  -0.15493   0.03873   90.00000   0.00000   0.00010     0  127  128     15
   128   0.00000   4.88034  -0.11620   0.03873   90.00000   0.00000   0.00010   127  128  129     15
   129   0.00000   4.88034  -0.07747   0.03873   90.00000   0.00000   0.00010   128  129  130     15
   130   0.00000   4.88034  -0.03873   0.03873   90.00000   0.00000   0.00010   129  130  131     15
   131   0.00000   4.88034   0.00000   0.03873   90.00000   0.00000   0.00010   130  131  132     15
   132   0.00000   4.88034   0.03873   0.03873   90.00000   0.00000   0.00010   131  132  133     15
   133   0.00000   4.88034   0.07747   0.03873   90.00000   0.00000   0.00010   132  133  134     15
   134   0.00000   4.88034   0.11620   0.03873   90.00000   0.00000   0.00010   133  134  135     15
   135   0.00000   4.88034   0.15493   0.03873   90.00000   0.00000   0.00010   134  135    0     15
   136   0.00000   5.22894  -0.15493   0.03873   90.00000   0.00000   0.00010     0  136  137     16
   137   0.00000   5.22894  -0.11620   0.03873   90.00000   0.00000   0.00010   136  137  138     16
   138   0.00000   5.22894  -0.07747   0.03873   90.00000   0.00000   0.00010   137  138  139     16
   139   0.00000   5.22894  -0.03873   0.03873   90.00000   0.00000   0.00010   138  139  140     16
   140   0.00000   5.22894   0.00000   0.03873   90.00000   0.00000   0.00010   139  140  141     16
   141   0.00000   5.22894   0.03873   0.03873   90.00000   0.00000   0.00010   140  141  142     16
   142   0.00000   5.22894   0.07747   0.03873   90.00000   0.00000   0.00010   141  142  143     16
   143   0.00000   5.22894   0.11620   0.03873   90.00000   0.00000   0.00010   142  143  144     16
   144   0.00000   5.22894   0.15493   0.03873   90.00000   0.00000   0.00010   143  144    0     16
   145   0.00000   5.57753  -0.15493   0.03873   90.00000   0.00000   0.00010     0  145  146     17
   146   0.00000   5.57753  -0.11620   0.03873   90.00000   0.00000   0.00010   145  146  147     17
   147   0.00000   5.57753  -0.07747   0.03873   90.00000   0.00000   0.00010   146  147  148     17
   148   0.00000   5.57753  -0.03873   0.03873   90.00000   0.00000   0.00010   147  148  149     17
   149   0.00000   5.57753   0.00000   0.03873   90.00000   0.00000   0.00010   148  149  150     17
   150   0.00000   5.57753   0.03873   0.03873   90.00000   0.00000   0.00010   149  150  151     17
   151   0.00000   5.57753   0.07747   0.03873   90.00000   0.00000   0.00010   150  151  152     17
   152   0.00000   5.57753   0.11620   0.03873   90.00000   0.00000   0.00010   151  152  153     17
   153   0.00000   5.57753   0.15493   0.03873   90.00000   0.00000   0.00010   152  153    0     17
   154   0.00000   5.92613  -0.15493   0.03873   90.00000   0.00000   0.00010     0  154  155     18
   155   0.00000   5.92613  -0.11620   0.03873   90.00000   0.00000   0.00010   154  155  156     18
   156   0.00000   5.92613  -0.07747   0.03873   90.00000   0.00000   0.00010   155  156  157     18
   157   0.00000   5.92613  -0.03873   0.03873   90.00000   0.00000   0.00010   156  157  158     18
   158   0.00000   5.92613   0.00000   0.03873   90.00000   0.00000   0.00010   157  158  159     18
   159   0.00000   5.92613   0.03873   0.03873   90.00000   0.00000   0.00010   158  159  160     18
   160   0.00000   5.92613   0.07747   0.03873   90.00000   0.00000   0.00010   159  160  161     18
   161   0.00000   5.92613   0.11620   0.03873   90.00000   0.00000   0.00010   160  161  162     18
   162   0.00000   5.92613   0.15493   0.03873   90.00000   0.00000   0.00010   161  162    0     18
   163   0.00000   6.27473  -0.15493   0.03873   90.00000   0.00000   0.00010     0  163  164     19
   164   0.00000   6.27473  -0.11620   0.03873   90.00000   0.00000   0.00010   163  164  165     19
   165   0.00000   6.27473  -0.07747   0.03873   90.00000   0.00000   0.00010   164  165  166     19
   166   0.00000   6.27473  -0.03873   0.03873   90.00000   0.00000   0.00010   165  166  167     19
   167   0.00000   6.27473   0.00000   0.03873   90.00000   0.00000   0.00010   166  167  168     19
   168   0.00000   6.27473   0.03873   0.03873   90.00000   0.00000   0.00010   167  168  169     19
   169   0.00000   6.27473   0.07747   0.03873   90.00000   0.00000   0.00010   168  169  170     19
   170   0.00000   6.27473   0.11620   0.03873   90.00000   0.00000   0.00010   169  170  171     19
   171   0.00000   6.27473   0.15493   0.03873   90.00000   0.00000   0.00010   170  171    0     19
   172   0.00000   6.62332  -0.15493   0.03873   90.00000   0.00000   0.00010     0  172  173     20
   173   0.00000   6.62332  -0.11620   0.03873   90.00000   0.00000   0.00010   172  173  174     20
   174   0.00000   6.62332  -0.07747   0.03873   90.00000   0.00000   0.00010   173  174  175     20
   175   0.00000   6.62332  -0.03873   0.03873   90.00000   0.00000   0.00010   174  175  176     20
   176   0.00000   6.62332   0.00000   0.03873   90.00000   0.00000   0.00010   175  176  177     20
   177   0.00000   6.62332   0.03873   0.03873   90.00000   0.00000   0.00010   176  177  178     20
   178   0.00000   6.62332   0.07747   0.03873   90.00000   0.00000   0.00010   177  178  179     20
   179   0.00000   6.62332   0.11620   0.03873   90.00000   0.00000   0.00010   178  179  180     20
   180   0.00000   6.62332   0.15493   0.03873   90.00000   0.00000   0.00010   179  180    0     20






 ***** DATA CARD NO.  1   LD   4     1     5     5  5.00000E+01  0.00000E+00  0.00000E+00  0.00000E+00  0.00000E+00  0.00000E+00
 ***** DATA CARD NO.  2   LD   4     2     5     5  5.00000E+01  0.00000E+00  0.00000E+00  0.00000E+00  0.00000E+00  0.00000E+00
 ***** DATA CARD NO.  3   LD   4     3     5     5  5.00000E+01  0.00000E+00  0.00000E+00  0.00000E+00  0.00000E+00  0.00000E+00
 ***** DATA CARD NO.  4   LD   4     4     5     5  5.00000E+01  0.00000E+00  0.00000E+00  0.00000E+00  0.00000E+00  0.00000E+00
 ***** DATA CARD NO.  5   LD   4     5     5     5  5.00000E+01  0.00000E+00  0.00000E+00  0.00000E+00  0.00000E+00  0.00000E+00
 ***** DATA CARD NO.  6   LD   4     6     5     5  5.00000E+01  0.00000E+00  0.00000E+00  0.00000E+00  0.00000E+00  0.00000E+00
 ***** DATA CARD NO.  7   LD   4     7     5     5  5.00000E+01  0.00000E+00  0.00000E+00  0.00000E+00  0.00000E+00  0.00000E+00
 ***** DATA CARD NO.  8   LD   4     8     5     5  5.00000E+01  0.00000E+00  0.00000E+00  0.00000E+00  0.00000E+00  0.00000E+00
 ***** DATA CARD NO.  9   LD   4     9     5     5  5.00000E+01  0.00000E+00  0.00000E+00  0.00000E+00  0.00000E+00  0.00000E+00
 ***** DATA CARD NO. 10   LD   4    10     5     5  5.00000E+01  0.00000E+00  0.00000E+00  0.00000E+00  0.00000E+00  0.00000E+00
 ***** DATA CARD NO. 11   LD   4    11     5     5  5.00000E+01  0.00000E+00  0.00000E+00  0.00000E+00  0.00000E+00  0.00000E+00
 ***** DATA CARD NO. 12   LD   4    12     5     5  5.00000E+01  0.00000E+00  0.00000E+00  0.00000E+00  0.00000E+00  0.00000E+00
 ***** DATA CARD NO. 13   LD   4    13     5     5  5.00000E+01  0.00000E+00  0.00000E+00  0.00000E+00  0.00000E+00  0.00000E+00
 ***** DATA CARD NO. 14   LD   4    14     5     5  5.00000E+01  0.00000E+00  0.00000E+00  0.00000E+00  0.00000E+00  0.00000E+00
 ***** DATA CARD NO. 15   LD   4    15     5     5  5.00000E+01  0.00000E+00  0.00000E+00  0.00000E+00  0.00000E+00  0.00000E+00
 ***** DATA CARD NO. 16   LD   4    16     5     5  5.00000E+01  0.00000E+00  0.00000E+00  0.00000E+00  0.00000E+00  0.00000E+00
 ***** DATA CARD NO. 17   LD   4    17     5     5  5.00000E+01  0.00000E+00  0.00000E+00  0.00000E+00  0.00000E+00  0.00000E+00
 ***** DATA CARD NO. 18   LD   4    18     5     5  5.00000E+01  0.00000E+00  0.00000E+00  0.00000E+00  0.00000E+00  0.00000E+00
 ***** DATA CARD NO. 19   LD   4    19     5     5  5.00000E+01  0.00000E+00  0.00000E+00  0.00000E+00  0.00000E+00  0.00000E+00
 ***** DATA CARD NO. 20   LD   4    20     5     5  5.00000E+01  0.00000E+00  0.00000E+00  0.00000E+00  0.00000E+00  0.00000E+00
 ***** DATA CARD NO. 21   GN  -1     0     0     0  0.00000E+00  0.00000E+00  0.00000E+00  0.00000E+00  0.00000E+00  0.00000E+00
 ***** DATA CARD NO. 22   EK   0     0     0     0  0.00000E+00  0.00000E+00  0.00000E+00  0.00000E+00  0.00000E+00  0.00000E+00
 ***** DATA CARD NO. 23   EX   0     5     5     0  1.00000E+00  0.00000E+00  0.00000E+00  0.00000E+00  0.00000E+00  0.00000E+00
 ***** DATA CARD NO. 24   FR   0     0     0     0  4.30000E+02  0.00000E+00  0.00000E+00  0.00000E+00  0.00000E+00  0.00000E+00
 ***** DATA CARD NO. 25   RP   0    37    73  1003 -1.80000E+02  0.00000E+00  5.00000E+00  5.00000E+00  0.00000E+00  0.00000E+00




                                 - - - - - - FREQUENCY - - - - - -

                                    FREQUENCY= 4.3000E+02 MHZ
                                    WAVELENGTH= 6.9721E-01 METERS




                    APPROXIMATE INTEGRATION EMPLOYED FOR SEGMENTS MORE THAN   1.000 WAVELENGTHS APART

                    THE EXTENDED THIN WIRE KERNEL WILL BE USED



                               - - - STRUCTURE IMPEDANCE LOADING - - -


       LOCATION          RESISTANCE   INDUCTANCE  CAPACITANCE       IMPEDANCE (OHMS)     CONDUCTIVITY    TYPE
    ITAG FROM THRU          OHMS        HENRYS       FARADS        REAL      IMAGINARY    MHOS/METER

       1    5    5                                             5.0000E+01                             FIXED IMPEDANCE 

       2    5    5                                             5.0000E+01                             FIXED IMPEDANCE 

       3    5    5                                             5.0000E+01                             FIXED IMPEDANCE 

       4    5    5                                             5.0000E+01                             FIXED IMPEDANCE 

       5    5    5                                             5.0000E+01                             FIXED IMPEDANCE 

       6    5    5                                             5.0000E+01                             FIXED IMPEDANCE 

       7    5    5                                             5.0000E+01                             FIXED IMPEDANCE 

       8    5    5                                             5.0000E+01                             FIXED IMPEDANCE 

       9    5    5                                             5.0000E+01                             FIXED IMPEDANCE 

      10    5    5                                             5.0000E+01                             FIXED IMPEDANCE 

      11    5    5                                             5.0000E+01                             FIXED IMPEDANCE 

      12    5    5                                             5.0000E+01                             FIXED IMPEDANCE 

      13    5    5                                             5.0000E+01                             FIXED IMPEDANCE 

      14    5    5                                             5.0000E+01                             FIXED IMPEDANCE 

      15    5    5                                             5.0000E+01                             FIXED IMPEDANCE 

      16    5    5                                             5.0000E+01                             FIXED IMPEDANCE 

      17    5    5                                             5.0000E+01                             FIXED IMPEDANCE 

      18    5    5                                             5.0000E+01                             FIXED IMPEDANCE 

      19    5    5                                             5.0000E+01                             FIXED IMPEDANCE 

      20    5    5                                             5.0000E+01                             FIXED IMPEDANCE 



                                  - - - ANTENNA ENVIRONMENT - - -

                                            FREE SPACE



                                - - - MATRIX TIMING - - -

                        FILL=    0.031 SEC.,  FACTOR=    0.016 SEC.



                                          - - - ANTENNA INPUT PARAMETERS - - -

   TAG   SEG.    VOLTAGE (VOLTS)         CURRENT (AMPS)         IMPEDANCE (OHMS)        ADMITTANCE (MHOS)      POWER
   NO.   NO.    REAL        IMAG.       REAL        IMAG.       REAL        IMAG.       REAL        IMAG.     (WATTS)
     5    41 1.00000E+00 0.00000E+00 7.29738E-03-1.44016E-03 1.31898E+02 2.60305E+01 7.29738E-03-1.44016E-03 3.64869E-03



                             - - - CURRENTS AND LOCATION - - -

                                 DISTANCES IN WAVELENGTHS


  SEG.  TAG    COORD. OF SEG. CENTER     SEG.            - - - CURRENT (AMPS) - - -
  NO.   NO.     X        Y        Z      LENGTH     REAL        IMAG.       MAG.        PHASE
     1    1   0.0000   0.0000  -0.2222  0.05555  -4.4447E-05 -3.5741E-06  4.4591E-05 -175.403
     2    1   0.0000   0.0000  -0.1667  0.05555  -1.1989E-04 -7.9713E-06  1.2015E-04 -176.196
     3    1   0.0000   0.0000  -0.1111  0.05555  -1.7873E-04 -9.2995E-06  1.7897E-04 -177.021
     4    1   0.0000   0.0000  -0.0556  0.05555  -2.1667E-04 -7.6540E-06  2.1681E-04 -177.977
     5    1   0.0000   0.0000   0.0000  0.05555  -2.2983E-04 -4.4482E-06  2.2988E-04 -178.891
     6    1   0.0000   0.0000   0.0556  0.05555  -2.1667E-04 -7.6540E-06  2.1681E-04 -177.977
     7    1   0.0000   0.0000   0.1111  0.05555  -1.7873E-04 -9.2995E-06  1.7897E-04 -177.021
     8    1   0.0000   0.0000   0.1667  0.05555  -1.1989E-04 -7.9713E-06  1.2015E-04 -176.196
     9    1   0.0000   0.0000   0.2222  0.05555  -4.4447E-05 -3.5741E-06  4.4591E-05 -175.403
    10    2   0.0000   0.5000  -0.2222  0.05555   5.8931E-05  2.9674E-06  5.9006E-05    2.883
    11    2   0.0000   0.5000  -0.1667  0.05555   1.5892E-04  5.7715E-06  1.5903E-04    2.080
    12    2   0.0000   0.5000  -0.1111  0.05555   2.3687E-04  5.1609E-06  2.3692E-04    1.248
    13    2   0.0000   0.5000  -0.0556  0.05555   2.8705E-04  1.4500E-06  2.8705E-04    0.289
    14    2   0.0000   0.5000   0.0000  0.05555   3.0435E-04 -3.3253E-06  3.0437E-04   -0.626
    15    2   0.0000   0.5000   0.0556  0.05555   2.8705E-04  1.4500E-06  2.8705E-04    0.289
    16    2   0.0000   0.5000   0.1111  0.05555   2.3687E-04  5.1609E-06  2.3692E-04    1.248
    17    2   0.0000   0.5000   0.1667  0.05555   1.5892E-04  5.7715E-06  1.5903E-04    2.080
    18    2   0.0000   0.5000   0.2222  0.05555   5.8931E-05  2.9674E-06  5.9006E-05    2.883
    19    3   0.0000   1.0000  -0.2222  0.05555  -1.0112E-04 -1.8521E-05  1.0280E-04 -169.621
    20    3   0.0000   1.0000  -0.1667  0.05555  -2.7278E-04 -4.6032E-05  2.7663E-04 -170.421
    21    3   0.0000   1.0000  -0.1111  0.05555  -4.0692E-04 -6.2596E-05  4.1171E-04 -171.255
    22    3   0.0000   1.0000  -0.0556  0.05555  -4.9393E-04 -6.7519E-05  4.9852E-04 -172.216
    23    3   0.0000   1.0000   0.0000  0.05555  -5.2471E-04 -6.3194E-05  5.2850E-04 -173.133
    24    3   0.0000   1.0000   0.0556  0.05555  -4.9393E-04 -6.7519E-05  4.9852E-04 -172.216
    25    3   0.0000   1.0000   0.1111  0.05555  -4.0692E-04 -6.2596E-05  4.1171E-04 -171.255
    26    3   0.0000   1.0000   0.1667  0.05555  -2.7278E-04 -4.6032E-05  2.7663E-04 -170.421
    27    3   0.0000   1.0000   0.2222  0.05555  -1.0112E-04 -1.8521E-05  1.0280E-04 -169.621
    28    4   0.0000   1.5000  -0.2222  0.05555   2.6659E-04  1.2374E-04  2.9391E-04   24.899
    29    4   0.0000   1.5000  -0.1667  0.05555   7.1853E-04  3.2497E-04  7.8861E-04   24.336
    30    4   0.0000   1.5000  -0.1111  0.05555   1.0727E-03  4.7006E-04  1.1711E-03   23.664
    31    4   0.0000   1.5000  -0.0556  0.05555   1.3056E-03  5.4869E-04  1.4162E-03   22.795
    32    4   0.0000   1.5000   0.0000  0.05555   1.3923E-03  5.5994E-04  1.5007E-03   21.908
    33    4   0.0000   1.5000   0.0556  0.05555   1.3056E-03  5.4869E-04  1.4162E-03   22.795
    34    4   0.0000   1.5000   0.1111  0.05555   1.0727E-03  4.7006E-04  1.1711E-03   23.664
    35    4   0.0000   1.5000   0.1667  0.05555   7.1853E-04  3.2497E-04  7.8861E-04   24.336
    36    4   0.0000   1.5000   0.2222  0.05555   2.6659E-04  1.2374E-04  2.9391E-04   24.899
    37    5   0.0000   2.0000  -0.2222  0.05555   1.4322E-03 -4.0832E-04  1.4893E-03  -15.913
    38    5   0.0000   2.0000  -0.1667  0.05555   3.8489E-03 -1.0344E-03  3.9854E-03  -15.043
    39    5   0.0000   2.0000  -0.1111  0.05555   5.7172E-03 -1.4243E-03  5.8919E-03  -13.989
    40    5   0.0000   2.0000  -0.0556  0.05555   6.9040E-03 -1.5436E-03  7.0744E-03  -12.603
    41    5   0.0000   2.0000   0.0000  0.05555   7.2974E-03 -1.4402E-03  7.4381E-03  -11.164
    42    5   0.0000   2.0000   0.0556  0.05555   6.9040E-03 -1.5436E-03  7.0744E-03  -12.603
    43    5   0.0000   2.0000   0.1111  0.05555   5.7172E-03 -1.4243E-03  5.8919E-03  -13.989
    44    5   0.0000   2.0000   0.1667  0.05555   3.8489E-03 -1.0344E-03  3.9854E-03  -15.043
    45    5   0.0000   2.0000   0.2222  0.05555   1.4322E-03 -4.0832E-04  1.4893E-03  -15.913
    46    6   0.0000   2.4999  -0.2222  0.05555   2.6569E-04  1.2339E-04  2.9295E-04   24.910
    47    6   0.0000   2.4999  -0.1667  0.05555   7.1609E-04  3.2405E-04  7.8600E-04   24.348
    48    6   0.0000   2.4999  -0.1111  0.05555   1.0690E-03  4.6873E-04  1.1672E-03   23.676
    49    6   0.0000   2.4999  -0.0556  0.05555   1.3011E-03  5.4715E-04  1.4115E-03   22.808
    50    6   0.0000   2.4999   0.0000  0.05555   1.3876E-03  5.5839E-04  1.4957E-03   21.921
    51    6   0.0000   2.4999   0.0556  0.05555   1.3011E-03  5.4715E-04  1.4115E-03   22.808
    52    6   0.0000   2.4999   0.1111  0.05555   1.0690E-03  4.6873E-04  1.1672E-03   23.676
    53    6   0.0000   2.4999   0.1667  0.05555   7.1609E-04  3.2405E-04  7.8600E-04   24.348
    54    6   0.0000   2.4999   0.2222  0.05555   2.6569E-04  1.2339E-04  2.9295E-04   24.910
    55    7   0.0000   2.9999  -0.2222  0.05555  -9.9098E-05 -1.7632E-05  1.0065E-04 -169.911
    56    7   0.0000   2.9999  -0.1667  0.05555  -2.6730E-04 -4.3711E-05  2.7085E-04 -170.713
    57    7   0.0000   2.9999  -0.1111  0.05555  -3.9870E-04 -5.9256E-05  4.0308E-04 -171.547
    58    7   0.0000   2.9999  -0.0556  0.05555  -4.8391E-04 -6.3639E-05  4.8808E-04 -172.508
    59    7   0.0000   2.9999   0.0000  0.05555  -5.1402E-04 -5.9250E-05  5.1743E-04 -173.425
    60    7   0.0000   2.9999   0.0556  0.05555  -4.8391E-04 -6.3639E-05  4.8808E-04 -172.508
    61    7   0.0000   2.9999   0.1111  0.05555  -3.9870E-04 -5.9256E-05  4.0308E-04 -171.547
    62    7   0.0000   2.9999   0.1667  0.05555  -2.6730E-04 -4.3711E-05  2.7085E-04 -170.713
    63    7   0.0000   2.9999   0.2222  0.05555  -9.9098E-05 -1.7632E-05  1.0065E-04 -169.911
    64    8   0.0000   3.4999  -0.2222  0.05555   5.5110E-05  9.0425E-07  5.5117E-05    0.940
    65    8   0.0000   3.4999  -0.1667  0.05555   1.4856E-04  3.5902E-07  1.4856E-04    0.138
    66    8   0.0000   3.4999  -0.1111  0.05555   2.2132E-04 -2.6741E-06  2.2133E-04   -0.692
    67    8   0.0000   3.4999  -0.0556  0.05555   2.6806E-04 -7.7235E-06  2.6817E-04   -1.650
    68    8   0.0000   3.4999   0.0000  0.05555   2.8407E-04 -1.2728E-05  2.8435E-04   -2.566
    69    8   0.0000   3.4999   0.0556  0.05555   2.6806E-04 -7.7235E-06  2.6817E-04   -1.650
    70    8   0.0000   3.4999   0.1111  0.05555   2.2132E-04 -2.6741E-06  2.2133E-04   -0.692
    71    8   0.0000   3.4999   0.1667  0.05555   1.4856E-04  3.5902E-07  1.4856E-04    0.138
    72    8   0.0000   3.4999   0.2222  0.05555   5.5110E-05  9.0425E-07  5.5117E-05    0.940
    73    9   0.0000   3.9999  -0.2222  0.05555  -3.6127E-05  3.0486E-06  3.6255E-05  175.176
    74    9   0.0000   3.9999  -0.1667  0.05555  -9.7332E-05  9.5634E-06  9.7801E-05  174.388
    75    9   0.0000   3.9999  -0.1111  0.05555  -1.4487E-04  1.6332E-05  1.4579E-04  173.568
    76    9   0.0000   3.9999  -0.0556  0.05555  -1.7523E-04  2.2708E-05  1.7669E-04  172.616
    77    9   0.0000   3.9999   0.0000  0.05555  -1.8541E-04  2.7039E-05  1.8737E-04  171.703
    78    9   0.0000   3.9999   0.0556  0.05555  -1.7523E-04  2.2708E-05  1.7669E-04  172.616
    79    9   0.0000   3.9999   0.1111  0.05555  -1.4487E-04  1.6332E-05  1.4579E-04  173.568
    80    9   0.0000   3.9999   0.1667  0.05555  -9.7332E-05  9.5634E-06  9.7801E-05  174.388
    81    9   0.0000   3.9999   0.2222  0.05555  -3.6127E-05  3.0486E-06  3.6255E-05  175.176
    82   10   0.0000   4.4999  -0.2222  0.05555   2.6049E-05 -4.0387E-06  2.6360E-05   -8.813
    83   10   0.0000   4.4999  -0.1667  0.05555   7.0149E-05 -1.1851E-05  7.1143E-05   -9.589
    84   10   0.0000   4.4999  -0.1111  0.05555   1.0434E-04 -1.9151E-05  1.0609E-04  -10.400
    85   10   0.0000   4.4999  -0.0556  0.05555   1.2608E-04 -2.5301E-05  1.2860E-04  -11.347
    86   10   0.0000   4.4999   0.0000  0.05555   1.3327E-04 -2.8955E-05  1.3638E-04  -12.258
    87   10   0.0000   4.4999   0.0556  0.05555   1.2608E-04 -2.5301E-05  1.2860E-04  -11.347
    88   10   0.0000   4.4999   0.1111  0.05555   1.0434E-04 -1.9151E-05  1.0609E-04  -10.400
    89   10   0.0000   4.4999   0.1667  0.05555   7.0149E-05 -1.1851E-05  7.1143E-05   -9.589
    90   10   0.0000   4.4999   0.2222  0.05555   2.6049E-05 -4.0387E-06  2.6360E-05   -8.813
    91   11   0.0000   4.9999  -0.2222  0.05555  -2.0000E-05  4.1554E-06  2.0427E-05  168.263
    92   11   0.0000   4.9999  -0.1667  0.05555  -5.3843E-05  1.1939E-05  5.5151E-05  167.498
    93   11   0.0000   4.9999  -0.1111  0.05555  -8.0048E-05  1.8932E-05  8.2256E-05  166.694
    94   11   0.0000   4.9999  -0.0556  0.05555  -9.6654E-05  2.4544E-05  9.9721E-05  165.752
    95   11   0.0000   4.9999   0.0000  0.05555  -1.0208E-04  2.7654E-05  1.0576E-04  164.842
    96   11   0.0000   4.9999   0.0556  0.05555  -9.6654E-05  2.4544E-05  9.9721E-05  165.752
    97   11   0.0000   4.9999   0.1111  0.05555  -8.0048E-05  1.8932E-05  8.2256E-05  166.694
    98   11   0.0000   4.9999   0.1667  0.05555  -5.3843E-05  1.1939E-05  5.5151E-05  167.498
    99   11   0.0000   4.9999   0.2222  0.05555  -2.0000E-05  4.1554E-06  2.0427E-05  168.263
   100   12   0.0000   5.4999  -0.2222  0.05555   1.6061E-05 -3.9894E-06  1.6549E-05  -13.949
   101   12   0.0000   5.4999  -0.1667  0.05555   4.3228E-05 -1.1345E-05  4.4691E-05  -14.705
   102   12   0.0000   5.4999  -0.1111  0.05555   6.4241E-05 -1.7820E-05  6.6667E-05  -15.503
   103   12   0.0000   5.4999  -0.0556  0.05555   7.7523E-05 -2.2878E-05  8.0829E-05  -16.442
   104   12   0.0000   5.4999   0.0000  0.05555   8.1824E-05 -2.5565E-05  8.5725E-05  -17.351
   105   12   0.0000   5.4999   0.0556  0.05555   7.7523E-05 -2.2878E-05  8.0829E-05  -16.442
   106   12   0.0000   5.4999   0.1111  0.05555   6.4241E-05 -1.7820E-05  6.6667E-05  -15.503
   107   12   0.0000   5.4999   0.1667  0.05555   4.3228E-05 -1.1345E-05  4.4691E-05  -14.705
   108   12   0.0000   5.4999   0.2222  0.05555   1.6061E-05 -3.9894E-06  1.6549E-05  -13.949
   109   13   0.0000   5.9998  -0.2222  0.05555  -1.3346E-05  3.7363E-06  1.3859E-05  164.360
   110   13   0.0000   5.9998  -0.1667  0.05555  -3.5912E-05  1.0562E-05  3.7433E-05  163.611
   111   13   0.0000   5.9998  -0.1111  0.05555  -5.3353E-05  1.6498E-05  5.5846E-05  162.818
   112   13   0.0000   5.9998  -0.0556  0.05555  -6.4356E-05  2.1058E-05  6.7713E-05  161.882
   113   13   0.0000   5.9998   0.0000  0.05555  -6.7893E-05  2.3412E-05  7.1816E-05  160.974
   114   13   0.0000   5.9998   0.0556  0.05555  -6.4356E-05  2.1058E-05  6.7713E-05  161.882
   115   13   0.0000   5.9998   0.1111  0.05555  -5.3353E-05  1.6498E-05  5.5846E-05  162.818
   116   13   0.0000   5.9998   0.1667  0.05555  -3.5912E-05  1.0562E-05  3.7433E-05  163.611
   117   13   0.0000   5.9998   0.2222  0.05555  -1.3346E-05  3.7363E-06  1.3859E-05  164.360
   118   14   0.0000   6.4998  -0.2222  0.05555   1.1398E-05 -3.4655E-06  1.1913E-05  -16.912
   119   14   0.0000   6.4998  -0.1667  0.05555   3.0666E-05 -9.7602E-06  3.2182E-05  -17.655
   120   14   0.0000   6.4998  -0.1111  0.05555   4.5550E-05 -1.5192E-05  4.8016E-05  -18.444
   121   14   0.0000   6.4998  -0.0556  0.05555   5.4925E-05 -1.9318E-05  5.8223E-05  -19.378
   122   14   0.0000   6.4998   0.0000  0.05555   5.7922E-05 -2.1409E-05  6.1752E-05  -20.285
   123   14   0.0000   6.4998   0.0556  0.05555   5.4925E-05 -1.9318E-05  5.8223E-05  -19.378
   124   14   0.0000   6.4998   0.1111  0.05555   4.5550E-05 -1.5192E-05  4.8016E-05  -18.444
   125   14   0.0000   6.4998   0.1667  0.05555   3.0666E-05 -9.7602E-06  3.2182E-05  -17.655
   126   14   0.0000   6.4998   0.2222  0.05555   1.1398E-05 -3.4655E-06  1.1913E-05  -16.912
   127   15   0.0000   6.9998  -0.2222  0.05555  -9.9664E-06  3.2013E-06  1.0468E-05  162.192
   128   15   0.0000   6.9998  -0.1667  0.05555  -2.6812E-05  8.9952E-06  2.8280E-05  161.454
   129   15   0.0000   6.9998  -0.1111  0.05555  -3.9818E-05  1.3970E-05  4.2198E-05  160.667
   130   15   0.0000   6.9998  -0.0556  0.05555  -4.8002E-05  1.7723E-05  5.1169E-05  159.735
   131   15   0.0000   6.9998   0.0000  0.05555  -5.0608E-05  1.9600E-05  5.4271E-05  158.829
   132   15   0.0000   6.9998   0.0556  0.05555  -4.8002E-05  1.7723E-05  5.1169E-05  159.735
   133   15   0.0000   6.9998   0.1111  0.05555  -3.9818E-05  1.3970E-05  4.2198E-05  160.667
   134   15   0.0000   6.9998   0.1667  0.05555  -2.6812E-05  8.9952E-06  2.8280E-05  161.454
   135   15   0.0000   6.9998   0.2222  0.05555  -9.9664E-06  3.2013E-06  1.0468E-05  162.192
   136   16   0.0000   7.4998  -0.2222  0.05555   8.9062E-06 -2.9476E-06  9.3813E-06  -18.312
   137   16   0.0000   7.4998  -0.1667  0.05555   2.3959E-05 -8.2722E-06  2.5347E-05  -19.048
   138   16   0.0000   7.4998  -0.1111  0.05555   3.5579E-05 -1.2832E-05  3.7822E-05  -19.833
   139   16   0.0000   7.4998  -0.0556  0.05555   4.2886E-05 -1.6260E-05  4.5865E-05  -20.764
   140   16   0.0000   7.4998   0.0000  0.05555   4.5208E-05 -1.7963E-05  4.8646E-05  -21.670
   141   16   0.0000   7.4998   0.0556  0.05555   4.2886E-05 -1.6260E-05  4.5865E-05  -20.764
   142   16   0.0000   7.4998   0.1111  0.05555   3.5579E-05 -1.2832E-05  3.7822E-05  -19.833
   143   16   0.0000   7.4998   0.1667  0.05555   2.3959E-05 -8.2722E-06  2.5347E-05  -19.048
   144   16   0.0000   7.4998   0.2222  0.05555   8.9062E-06 -2.9476E-06  9.3813E-06  -18.312
   145   17   0.0000   7.9998  -0.2222  0.05555  -8.1403E-06  2.6961E-06  8.5752E-06  161.675
   146   17   0.0000   7.9998  -0.1667  0.05555  -2.1899E-05  7.5661E-06  2.3170E-05  160.940
   147   17   0.0000   7.9998  -0.1111  0.05555  -3.2522E-05  1.1736E-05  3.4575E-05  160.157
   148   17   0.0000   7.9998  -0.0556  0.05555  -3.9202E-05  1.4871E-05  4.1927E-05  159.226
   149   17   0.0000   7.9998   0.0000  0.05555  -4.1324E-05  1.6428E-05  4.4470E-05  158.320
   150   17   0.0000   7.9998   0.0556  0.05555  -3.9202E-05  1.4871E-05  4.1927E-05  159.226
   151   17   0.0000   7.9998   0.1111  0.05555  -3.2522E-05  1.1736E-05  3.4575E-05  160.157
   152   17   0.0000   7.9998   0.1667  0.05555  -2.1899E-05  7.5661E-06  2.3170E-05  160.940
   153   17   0.0000   7.9998   0.2222  0.05555  -8.1403E-06  2.6961E-06  8.5752E-06  161.675
   154   18   0.0000   8.4998  -0.2222  0.05555   7.6485E-06 -2.4188E-06  8.0219E-06  -17.549
   155   18   0.0000   8.4998  -0.1667  0.05555   2.0580E-05 -6.8009E-06  2.1675E-05  -18.287
   156   18   0.0000   8.4998  -0.1111  0.05555   3.0568E-05 -1.0569E-05  3.2344E-05  -19.072
   157   18   0.0000   8.4998  -0.0556  0.05555   3.6856E-05 -1.3417E-05  3.9222E-05  -20.004
   158   18   0.0000   8.4998   0.0000  0.05555   3.8861E-05 -1.4847E-05  4.1601E-05  -20.910
   159   18   0.0000   8.4998   0.0556  0.05555   3.6856E-05 -1.3417E-05  3.9222E-05  -20.004
   160   18   0.0000   8.4998   0.1111  0.05555   3.0568E-05 -1.0569E-05  3.2344E-05  -19.072
   161   18   0.0000   8.4998   0.1667  0.05555   2.0580E-05 -6.8009E-06  2.1675E-05  -18.287
   162   18   0.0000   8.4998   0.2222  0.05555   7.6485E-06 -2.4188E-06  8.0219E-06  -17.549
   163   19   0.0000   8.9998  -0.2222  0.05555  -7.5082E-06  2.0175E-06  7.7746E-06  164.960
   164   19   0.0000   8.9998  -0.1667  0.05555  -2.0211E-05  5.7154E-06  2.1003E-05  164.210
   165   19   0.0000   8.9998  -0.1111  0.05555  -3.0036E-05  8.9452E-06  3.1339E-05  163.415
   166   19   0.0000   8.9998  -0.0556  0.05555  -3.6239E-05  1.1441E-05  3.8002E-05  162.479
   167   19   0.0000   8.9998   0.0000  0.05555  -3.8239E-05  1.2742E-05  4.0306E-05  161.571
   168   19   0.0000   8.9998   0.0556  0.05555  -3.6239E-05  1.1441E-05  3.8002E-05  162.479
   169   19   0.0000   8.9998   0.1111  0.05555  -3.0036E-05  8.9452E-06  3.1339E-05  163.415
   170   19   0.0000   8.9998   0.1667  0.05555  -2.0211E-05  5.7154E-06  2.1003E-05  164.210
   171   19   0.0000   8.9998   0.2222  0.05555  -7.5082E-06  2.0175E-06  7.7746E-06  164.960
   172   20   0.0000   9.4998  -0.2222  0.05555   8.2662E-06 -9.0172E-07  8.3153E-06   -6.225
   173   20   0.0000   9.4998  -0.1667  0.05555   2.2267E-05 -2.7330E-06  2.2434E-05   -6.998
   174   20   0.0000   9.4998  -0.1111  0.05555   3.3133E-05 -4.5433E-06  3.3443E-05   -7.808
   175   20   0.0000   9.4998  -0.0556  0.05555   4.0059E-05 -6.1688E-06  4.0532E-05   -8.754
   176   20   0.0000   9.4998   0.0000  0.05555   4.2371E-05 -7.2164E-06  4.2981E-05   -9.666
   177   20   0.0000   9.4998   0.0556  0.05555   4.0059E-05 -6.1688E-06  4.0532E-05   -8.754
   178   20   0.0000   9.4998   0.1111  0.05555   3.3133E-05 -4.5433E-06  3.3443E-05   -7.808
   179   20   0.0000   9.4998   0.1667  0.05555   2.2267E-05 -2.7330E-06  2.2434E-05   -6.998
   180   20   0.0000   9.4998   0.2222  0.05555   8.2662E-06 -9.0172E-07  8.3153E-06   -6.225



                                        - - - POWER BUDGET - - -

                                           INPUT POWER   = 3.6487E-03 WATTS
                                           RADIATED POWER= 2.1316E-03 WATTS
                                           STRUCTURE LOSS= 1.5171E-03 WATTS
                                           NETWORK LOSS  = 0.0000E+00 WATTS
                                           EFFICIENCY    =  58.42 PERCENT



                                                - - - RADIATION PATTERNS - - -

  - - ANGLES - -           - POWER GAINS -       - - - POLARIZATION - - -    - - - E(THETA) - - -    - - - E(PHI) - - -
  THETA     PHI        VERT.   HOR.    TOTAL      AXIAL     TILT   SENSE     MAGNITUDE    PHASE      MAGNITUDE    PHASE 
 DEGREES  DEGREES       DB      DB      DB        RATIO     DEG.              VOLTS/M    DEGREES      VOLTS/M    DEGREES
 -180.00     0.00    -999.99 -999.99 -999.99    0.00000     0.00            4.54864E-12    85.93    0.00000E+00     0.00
 -175.00     0.00     -21.60 -999.99  -21.60    0.00000     0.00  LINEAR    3.89172E-02   -94.07    0.00000E+00     0.00
 -170.00     0.00     -15.56 -999.99  -15.56    0.00000     0.00  LINEAR    7.79920E-02   -94.08    0.00000E+00     0.00
 -165.00     0.00     -12.01 -999.99  -12.01    0.00000     0.00  LINEAR    1.17356E-01   -94.09    0.00000E+00     0.00
 -160.00     0.00      -9.48 -999.99   -9.48    0.00000     0.00  LINEAR    1.57088E-01   -94.11    0.00000E+00     0.00
 -155.00     0.00      -7.50 -999.99   -7.50    0.00000     0.00  LINEAR    1.97195E-01   -94.13    0.00000E+00     0.00
 -150.00     0.00      -5.88 -999.99   -5.88    0.00000     0.00  LINEAR    2.37586E-01   -94.15    0.00000E+00     0.00
 -145.00     0.00      -4.52 -999.99   -4.52    0.00000     0.00  LINEAR    2.78058E-01   -94.17    0.00000E+00     0.00
 -140.00     0.00      -3.34 -999.99   -3.34    0.00000     0.00  LINEAR    3.18290E-01   -94.19    0.00000E+00     0.00
 -135.00     0.00      -2.33 -999.99   -2.33    0.00000     0.00  LINEAR    3.57833E-01   -94.22    0.00000E+00     0.00
 -130.00     0.00      -1.44 -999.99   -1.44    0.00000     0.00  LINEAR    3.96124E-01   -94.24    0.00000E+00     0.00
 -125.00     0.00      -0.68 -999.99   -0.68    0.00000     0.00  LINEAR    4.32498E-01   -94.26    0.00000E+00     0.00
 -120.00     0.00      -0.03 -999.99   -0.03    0.00000     0.00  LINEAR    4.66215E-01   -94.28    0.00000E+00     0.00
 -115.00     0.00       0.52 -999.99    0.52    0.00000     0.00  LINEAR    4.96497E-01   -94.30    0.00000E+00     0.00
 -110.00     0.00       0.96 -999.99    0.96    0.00000     0.00  LINEAR    5.22570E-01   -94.32    0.00000E+00     0.00
 -105.00     0.00       1.31 -999.99    1.31    0.00000     0.00  LINEAR    5.43712E-01   -94.33    0.00000E+00     0.00
 -100.00     0.00       1.55 -999.99    1.55    0.00000     0.00  LINEAR    5.59302E-01   -94.34    0.00000E+00     0.00
  -95.00     0.00       1.70 -999.99    1.70    0.00000     0.00  LINEAR    5.68859E-01   -94.34    0.00000E+00     0.00
  -90.00     0.00       1.75 -999.99    1.75    0.00000     0.00  LINEAR    5.72079E-01   -94.34    0.00000E+00     0.00
  -85.00     0.00       1.70 -999.99    1.70    0.00000     0.00  LINEAR    5.68859E-01   -94.34    0.00000E+00     0.00
  -80.00     0.00       1.55 -999.99    1.55    0.00000     0.00  LINEAR    5.59302E-01   -94.34    0.00000E+00     0.00
  -75.00     0.00       1.31 -999.99    1.31    0.00000     0.00  LINEAR    5.43712E-01   -94.33    0.00000E+00     0.00
  -70.00     0.00       0.96 -999.99    0.96    0.00000     0.00  LINEAR    5.22570E-01   -94.32    0.00000E+00     0.00
  -65.00     0.00       0.52 -999.99    0.52    0.00000     0.00  LINEAR    4.96497E-01   -94.30    0.00000E+00     0.00
  -60.00     0.00      -0.03 -999.99   -0.03    0.00000     0.00  LINEAR    4.66215E-01   -94.28    0.00000E+00     0.00
  -55.00     0.00      -0.68 -999.99   -0.68    0.00000     0.00  LINEAR    4.32498E-01   -94.26    0.00000E+00     0.00
  -50.00     0.00      -1.44 -999.99   -1.44    0.00000     0.00  LINEAR    3.96124E-01   -94.24    0.00000E+00     0.00
  -45.00     0.00      -2.33 -999.99   -2.33    0.00000     0.00  LINEAR    3.57833E-01   -94.22    0.00000E+00     0.00
  -40.00     0.00      -3.34 -999.99   -3.34    0.00000     0.00  LINEAR    3.18290E-01   -94.19    0.00000E+00     0.00
  -35.00     0.00      -4.52 -999.99   -4.52    0.00000     0.00  LINEAR    2.78058E-01   -94.17    0.00000E+00     0.00
  -30.00     0.00      -5.88 -999.99   -5.88    0.00000     0.00  LINEAR    2.37586E-01   -94.15    0.00000E+00     0.00
  -25.00     0.00      -7.50 -999.99   -7.50    0.00000     0.00  LINEAR    1.97195E-01   -94.13    0.00000E+00     0.00
  -20.00     0.00      -9.48 -999.99   -9.48    0.00000     0.00  LINEAR    1.57088E-01   -94.11    0.00000E+00     0.00
  -15.00     0.00     -12.01 -999.99  -12.01    0.00000     0.00  LINEAR    1.17356E-01   -94.09    0.00000E+00     0.00
  -10.00     0.00     -15.56 -999.99  -15.56    0.00000     0.00  LINEAR    7.79920E-02   -94.08    0.00000E+00     0.00
   -5.00     0.00     -21.60 -999.99  -21.60    0.00000     0.00  LINEAR    3.89172E-02   -94.07    0.00000E+00     0.00
    0.00     0.00    -999.99 -999.99 -999.99    0.00000     0.00            0.00000E+00     0.00    0.00000E+00     0.00
 -180.00     5.00    -999.99 -999.99 -999.99    0.00000     0.00            4.54864E-12    85.93    0.00000E+00     0.00
 -175.00     5.00     -21.60 -999.99  -21.60    0.00000     0.00  LINEAR    3.89212E-02   -99.66    0.00000E+00     0.00
 -170.00     5.00     -15.56 -999.99  -15.56    0.00000     0.00  LINEAR    7.79897E-02  -105.21    0.00000E+00     0.00
 -165.00     5.00     -12.01 -999.99  -12.01    0.00000     0.00  LINEAR    1.17317E-01  -110.67    0.00000E+00     0.00
 -160.00     5.00      -9.48 -999.99   -9.48    0.00000     0.00  LINEAR    1.56976E-01  -115.99    0.00000E+00     0.00
 -155.00     5.00      -7.51 -999.99   -7.51    0.00000     0.00  LINEAR    1.96982E-01  -121.13    0.00000E+00     0.00
 -150.00     5.00      -5.90 -999.99   -5.90    0.00000     0.00  LINEAR    2.37265E-01  -126.05    0.00000E+00     0.00
 -145.00     5.00      -4.53 -999.99   -4.53    0.00000     0.00  LINEAR    2.77654E-01  -130.72    0.00000E+00     0.00
 -140.00     5.00      -3.36 -999.99   -3.36    0.00000     0.00  LINEAR    3.17852E-01  -135.10    0.00000E+00     0.00
 -135.00     5.00      -2.34 -999.99   -2.34    0.00000     0.00  LINEAR    3.57431E-01  -139.17    0.00000E+00     0.00
 -130.00     5.00      -1.45 -999.99   -1.45    0.00000     0.00  LINEAR    3.95835E-01  -142.89    0.00000E+00     0.00
 -125.00     5.00      -0.68 -999.99   -0.68    0.00000     0.00  LINEAR    4.32391E-01  -146.25    0.00000E+00     0.00
 -120.00     5.00      -0.03 -999.99   -0.03    0.00000     0.00  LINEAR    4.66344E-01  -149.22    0.00000E+00     0.00
 -115.00     5.00       0.53 -999.99    0.53    0.00000     0.00  LINEAR    4.96891E-01  -151.76    0.00000E+00     0.00
 -110.00     5.00       0.97 -999.99    0.97    0.00000     0.00  LINEAR    5.23231E-01  -153.88    0.00000E+00     0.00
 -105.00     5.00       1.32 -999.99    1.32    0.00000     0.00  LINEAR    5.44613E-01  -155.54    0.00000E+00     0.00
 -100.00     5.00       1.57 -999.99    1.57    0.00000     0.00  LINEAR    5.60391E-01  -156.74    0.00000E+00     0.00
  -95.00     5.00       1.72 -999.99    1.72    0.00000     0.00  LINEAR    5.70068E-01  -157.46    0.00000E+00     0.00
  -90.00     5.00       1.77 -999.99    1.77    0.00000     0.00  LINEAR    5.73330E-01  -157.70    0.00000E+00     0.00
  -85.00     5.00       1.72 -999.99    1.72    0.00000     0.00  LINEAR    5.70068E-01  -157.46    0.00000E+00     0.00
  -80.00     5.00       1.57 -999.99    1.57    0.00000     0.00  LINEAR    5.60391E-01  -156.74    0.00000E+00     0.00
  -75.00     5.00       1.32 -999.99    1.32    0.00000     0.00  LINEAR    5.44613E-01  -155.54    0.00000E+00     0.00
  -70.00     5.00       0.97 -999.99    0.97    0.00000     0.00  LINEAR    5.23231E-01  -153.88    0.00000E+00     0.00
  -65.00     5.00       0.53 -999.99    0.53    0.00000     0.00  LINEAR    4.96891E-01  -151.76    0.00000E+00     0.00
  -60.00     5.00      -0.03 -999.99   -0.03    0.00000     0.00  LINEAR    4.66344E-01  -149.22    0.00000E+00     0.00
  -55.00     5.00      -0.68 -999.99   -0.68    0.00000     0.00  LINEAR    4.32391E-01  -146.25    0.00000E+00     0.00
  -50.00     5.00      -1.45 -999.99   -1.45    0.00000     0.00  LINEAR    3.95835E-01  -142.89    0.00000E+00     0.00
  -45.00     5.00      -2.34 -999.99   -2.34    0.00000     0.00  LINEAR    3.57431E-01  -139.17    0.00000E+00     0.00
  -40.00     5.00      -3.36 -999.99   -3.36    0.00000     0.00  LINEAR    3.17852E-01  -135.10    0.00000E+00     0.00
  -35.00     5.00      -4.53 -999.99   -4.53    0.00000     0.00  LINEAR    2.77654E-01  -130.72    0.00000E+00     0.00
  -30.00     5.00      -5.90 -999.99   -5.90    0.00000     0.00  LINEAR    2.37265E-01  -126.05    0.00000E+00     0.00
  -25.00     5.00      -7.51 -999.99   -7.51    0.00000     0.00  LINEAR    1.96982E-01  -121.13    0.00000E+00     0.00
  -20.00     5.00      -9.48 -999.99   -9.48    0.00000     0.00  LINEAR    1.56976E-01  -115.99    0.00000E+00     0.00
  -15.00     5.00     -12.01 -999.99  -12.01    0.00000     0.00  LINEAR    1.17317E-01  -110.67    0.00000E+00     0.00
  -10.00     5.00     -15.56 -999.99  -15.56    0.00000     0.00  LINEAR    7.79897E-02  -105.21    0.00000E+00     0.00
   -5.00     5.00     -21.60 -999.99  -21.60    0.00000     0.00  LINEAR    3.89212E-02   -99.66    0.00000E+00     0.00
    0.00     5.00    -999.99 -999.99 -999.99    0.00000     0.00            0.00000E+00     0.00    0.00000E+00     0.00
 -180.00    10.00    -999.99 -999.99 -999.99    0.00000     0.00            4.54864E-12    85.93    0.00000E+00     0.00
 -175.00    10.00     -21.60 -999.99  -21.60    0.00000     0.00  LINEAR    3.89160E-02  -105.21    0.00000E+00     0.00
 -170.00    10.00     -15.57 -999.99  -15.57    0.00000     0.00  LINEAR    7.79341E-02  -116.22    0.00000E+00     0.00
 -165.00    10.00     -12.02 -999.99  -12.02    0.00000     0.00  LINEAR    1.17191E-01  -126.99    0.00000E+00     0.00
 -160.00    10.00      -9.49 -999.99   -9.49    0.00000     0.00  LINEAR    1.56887E-01  -137.45    0.00000E+00     0.00
 -155.00    10.00      -7.50 -999.99   -7.50    0.00000     0.00  LINEAR    1.97185E-01  -147.55    0.00000E+00     0.00
 -150.00    10.00      -5.87 -999.99   -5.87    0.00000     0.00  LINEAR    2.38075E-01  -157.26    0.00000E+00     0.00
 -145.00    10.00      -4.48 -999.99   -4.48    0.00000     0.00  LINEAR    2.79302E-01  -166.53    0.00000E+00     0.00
 -140.00    10.00      -3.29 -999.99   -3.29    0.00000     0.00  LINEAR    3.20375E-01  -175.29    0.00000E+00     0.00
 -135.00    10.00      -2.26 -999.99   -2.26    0.00000     0.00  LINEAR    3.60654E-01   176.55    0.00000E+00     0.00
 -130.00    10.00      -1.37 -999.99   -1.37    0.00000     0.00  LINEAR    3.99434E-01   169.07    0.00000E+00     0.00
 -125.00    10.00      -0.61 -999.99   -0.61    0.00000     0.00  LINEAR    4.36004E-01   162.33    0.00000E+00     0.00
 -120.00    10.00       0.04 -999.99    0.04    0.00000     0.00  LINEAR    4.69658E-01   156.40    0.00000E+00     0.00
 -115.00    10.00       0.57 -999.99    0.57    0.00000     0.00  LINEAR    4.99702E-01   151.32    0.00000E+00     0.00
 -110.00    10.00       1.01 -999.99    1.01    0.00000     0.00  LINEAR    5.25458E-01   147.13    0.00000E+00     0.00
 -105.00    10.00       1.35 -999.99    1.35    0.00000     0.00  LINEAR    5.46283E-01   143.84    0.00000E+00     0.00
 -100.00    10.00       1.59 -999.99    1.59    0.00000     0.00  LINEAR    5.61613E-01   141.48    0.00000E+00     0.00
  -95.00    10.00       1.73 -999.99    1.73    0.00000     0.00  LINEAR    5.71001E-01   140.05    0.00000E+00     0.00
  -90.00    10.00       1.78 -999.99    1.78    0.00000     0.00  LINEAR    5.74163E-01   139.58    0.00000E+00     0.00
  -85.00    10.00       1.73 -999.99    1.73    0.00000     0.00  LINEAR    5.71001E-01   140.05    0.00000E+00     0.00
  -80.00    10.00       1.59 -999.99    1.59    0.00000     0.00  LINEAR    5.61613E-01   141.48    0.00000E+00     0.00
  -75.00    10.00       1.35 -999.99    1.35    0.00000     0.00  LINEAR    5.46283E-01   143.84    0.00000E+00     0.00
  -70.00    10.00       1.01 -999.99    1.01    0.00000     0.00  LINEAR    5.25458E-01   147.13    0.00000E+00     0.00
  -65.00    10.00       0.57 -999.99    0.57    0.00000     0.00  LINEAR    4.99702E-01   151.32    0.00000E+00     0.00
  -60.00    10.00       0.04 -999.99    0.04    0.00000     0.00  LINEAR    4.69658E-01   156.40    0.00000E+00     0.00
  -55.00    10.00      -0.61 -999.99   -0.61    0.00000     0.00  LINEAR    4.36004E-01   162.33    0.00000E+00     0.00
  -50.00    10.00      -1.37 -999.99   -1.37    0.00000     0.00  LINEAR    3.99434E-01   169.07    0.00000E+00     0.00
  -45.00    10.00      -2.26 -999.99   -2.26    0.00000     0.00  LINEAR    3.60654E-01   176.55    0.00000E+00     0.00
  -40.00    10.00      -3.29 -999.99   -3.29    0.00000     0.00  LINEAR    3.20375E-01  -175.29    0.00000E+00     0.00
  -35.00    10.00      -4.48 -999.99   -4.48    0.00000     0.00  LINEAR    2.79302E-01  -166.53    0.00000E+00     0.00
  -30.00    10.00      -5.87 -999.99   -5.87    0.00000     0.00  LINEAR    2.38075E-01  -157.26    0.00000E+00     0.00
  -25.00    10.00      -7.50 -999.99   -7.50    0.00000     0.00  LINEAR    1.97185E-01  -147.55    0.00000E+00     0.00
  -20.00    10.00      -9.49 -999.99   -9.49    0.00000     0.00  LINEAR    1.56887E-01  -137.45    0.00000E+00     0.00
  -15.00    10.00     -12.02 -999.99  -12.02    0.00000     0.00  LINEAR    1.17191E-01  -126.99    0.00000E+00     0.00
  -10.00    10.00     -15.57 -999.99  -15.57    0.00000     0.00  LINEAR    7.79341E-02  -116.22    0.00000E+00     0.00
   -5.00    10.00     -21.60 -999.99  -21.60    0.00000     0.00  LINEAR    3.89160E-02  -105.21    0.00000E+00     0.00
    0.00    10.00    -999.99 -999.99 -999.99    0.00000     0.00            0.00000E+00     0.00    0.00000E+00     0.00
 -180.00    15.00    -999.99 -999.99 -999.99    0.00000     0.00            4.54864E-12    85.93    0.00000E+00     0.00
 -175.00    15.00     -21.60 -999.99  -21.60    0.00000     0.00  LINEAR    3.89041E-02  -110.65    0.00000E+00     0.00
 -170.00    15.00     -15.57 -999.99  -15.57    0.00000     0.00  LINEAR    7.78822E-02  -126.98    0.00000E+00     0.00
 -165.00    15.00     -12.02 -999.99  -12.02    0.00000     0.00  LINEAR    1.17266E-01  -142.91    0.00000E+00     0.00
 -160.00    15.00      -9.46 -999.99   -9.46    0.00000     0.00  LINEAR    1.57459E-01  -158.45    0.00000E+00     0.00
 -155.00    15.00      -7.45 -999.99   -7.45    0.00000     0.00  LINEAR    1.98414E-01  -173.60    0.00000E+00     0.00
 -150.00    15.00      -5.81 -999.99   -5.81    0.00000     0.00  LINEAR    2.39543E-01   171.79    0.00000E+00     0.00
 -145.00    15.00      -4.45 -999.99   -4.45    0.00000     0.00  LINEAR    2.80154E-01   157.91    0.00000E+00     0.00
 -140.00    15.00      -3.30 -999.99   -3.30    0.00000     0.00  LINEAR    3.19850E-01   144.95    0.00000E+00     0.00
 -135.00    15.00      -2.31 -999.99   -2.31    0.00000     0.00  LINEAR    3.58496E-01   133.00    0.00000E+00     0.00
 -130.00    15.00      -1.45 -999.99   -1.45    0.00000     0.00  LINEAR    3.95873E-01   122.10    0.00000E+00     0.00
 -125.00    15.00      -0.70 -999.99   -0.70    0.00000     0.00  LINEAR    4.31438E-01   112.27    0.00000E+00     0.00
 -120.00    15.00      -0.06 -999.99   -0.06    0.00000     0.00  LINEAR    4.64361E-01   103.54    0.00000E+00     0.00
 -115.00    15.00       0.47 -999.99    0.47    0.00000     0.00  LINEAR    4.93735E-01    96.00    0.00000E+00     0.00
 -110.00    15.00       0.90 -999.99    0.90    0.00000     0.00  LINEAR    5.18755E-01    89.71    0.00000E+00     0.00
 -105.00    15.00       1.23 -999.99    1.23    0.00000     0.00  LINEAR    5.38797E-01    84.76    0.00000E+00     0.00
 -100.00    15.00       1.46 -999.99    1.46    0.00000     0.00  LINEAR    5.53413E-01    81.18    0.00000E+00     0.00
  -95.00    15.00       1.60 -999.99    1.60    0.00000     0.00  LINEAR    5.62301E-01    79.02    0.00000E+00     0.00
  -90.00    15.00       1.65 -999.99    1.65    0.00000     0.00  LINEAR    5.65283E-01    78.30    0.00000E+00     0.00
  -85.00    15.00       1.60 -999.99    1.60    0.00000     0.00  LINEAR    5.62301E-01    79.02    0.00000E+00     0.00
  -80.00    15.00       1.46 -999.99    1.46    0.00000     0.00  LINEAR    5.53413E-01    81.18    0.00000E+00     0.00
  -75.00    15.00       1.23 -999.99    1.23    0.00000     0.00  LINEAR    5.38797E-01    84.76    0.00000E+00     0.00
  -70.00    15.00       0.90 -999.99    0.90    0.00000     0.00  LINEAR    5.18755E-01    89.71    0.00000E+00     0.00
  -65.00    15.00       0.47 -999.99    0.47    0.00000     0.00  LINEAR    4.93735E-01    96.00    0.00000E+00     0.00
  -60.00    15.00      -0.06 -999.99   -0.06    0.00000     0.00  LINEAR    4.64361E-01   103.54    0.00000E+00     0.00
  -55.00    15.00      -0.70 -999.99   -0.70    0.00000     0.00  LINEAR    4.31438E-01   112.27    0.00000E+00     0.00
  -50.00    15.00      -1.45 -999.99   -1.45    0.00000     0.00  LINEAR    3.95873E-01   122.10    0.00000E+00     0.00
  -45.00    15.00      -2.31 -999.99   -2.31    0.00000     0.00  LINEAR    3.58496E-01   133.00    0.00000E+00     0.00
  -40.00    15.00      -3.30 -999.99   -3.30    0.00000     0.00  LINEAR    3.19850E-01   144.95    0.00000E+00     0.00
  -35.00    15.00      -4.45 -999.99   -4.45    0.00000     0.00  LINEAR    2.80154E-01   157.91    0.00000E+00     0.00
  -30.00    15.00      -5.81 -999.99   -5.81    0.00000     0.00  LINEAR    2.39543E-01   171.79    0.00000E+00     0.00
  -25.00    15.00      -7.45 -999.99   -7.45    0.00000     0.00  LINEAR    1.98414E-01  -173.60    0.00000E+00     0.00
  -20.00    15.00      -9.46 -999.99   -9.46    0.00000     0.00  LINEAR    1.57459E-01  -158.45    0.00000E+00     0.00
  -15.00    15.00     -12.02 -999.99  -12.02    0.00000     0.00  LINEAR    1.17266E-01  -142.91    0.00000E+00     0.00
  -10.00    15.00     -15.57 -999.99  -15.57    0.00000     0.00  LINEAR    7.78822E-02  -126.98    0.00000E+00     0.00
   -5.00    15.00     -21.60 -999.99  -21.60    0.00000     0.00  LINEAR    3.89041E-02  -110.65    0.00000E+00     0.00
    0.00    15.00    -999.99 -999.99 -999.99    0.00000     0.00            0.00000E+00     0.00    0.00000E+00     0.00
 -180.00    20.00    -999.99 -999.99 -999.99    0.00000     0.00            4.54864E-12    85.93    0.00000E+00     0.00
 -175.00    20.00     -21.60 -999.99  -21.60    0.00000     0.00  LINEAR    3.88890E-02  -115.96    0.00000E+00     0.00
 -170.00    20.00     -15.57 -999.99  -15.57    0.00000     0.00  LINEAR    7.78914E-02  -137.42    0.00000E+00     0.00
 -165.00    20.00     -11.99 -999.99  -11.99    0.00000     0.00  LINEAR    1.17632E-01  -158.44    0.00000E+00     0.00
 -160.00    20.00      -9.41 -999.99   -9.41    0.00000     0.00  LINEAR    1.58226E-01  -179.11    0.00000E+00     0.00
 -155.00    20.00      -7.43 -999.99   -7.43    0.00000     0.00  LINEAR    1.98748E-01   160.79    0.00000E+00     0.00
 -150.00    20.00      -5.85 -999.99   -5.85    0.00000     0.00  LINEAR    2.38543E-01   141.66    0.00000E+00     0.00
 -145.00    20.00      -4.52 -999.99   -4.52    0.00000     0.00  LINEAR    2.77960E-01   123.66    0.00000E+00     0.00
 -140.00    20.00      -3.37 -999.99   -3.37    0.00000     0.00  LINEAR    3.17193E-01   106.72    0.00000E+00     0.00
 -135.00    20.00      -2.39 -999.99   -2.39    0.00000     0.00  LINEAR    3.55320E-01    90.81    0.00000E+00     0.00
 -130.00    20.00      -1.56 -999.99   -1.56    0.00000     0.00  LINEAR    3.90928E-01    76.07    0.00000E+00     0.00
 -125.00    20.00      -0.87 -999.99   -0.87    0.00000     0.00  LINEAR    4.23169E-01    62.75    0.00000E+00     0.00
 -120.00    20.00      -0.30 -999.99   -0.30    0.00000     0.00  LINEAR    4.51916E-01    51.02    0.00000E+00     0.00
 -115.00    20.00       0.17 -999.99    0.17    0.00000     0.00  LINEAR    4.77237E-01    40.96    0.00000E+00     0.00
 -110.00    20.00       0.56 -999.99    0.56    0.00000     0.00  LINEAR    4.98960E-01    32.62    0.00000E+00     0.00
 -105.00    20.00       0.86 -999.99    0.86    0.00000     0.00  LINEAR    5.16634E-01    26.06    0.00000E+00     0.00
 -100.00    20.00       1.08 -999.99    1.08    0.00000     0.00  LINEAR    5.29721E-01    21.32    0.00000E+00     0.00
  -95.00    20.00       1.21 -999.99    1.21    0.00000     0.00  LINEAR    5.37764E-01    18.46    0.00000E+00     0.00
  -90.00    20.00       1.26 -999.99    1.26    0.00000     0.00  LINEAR    5.40477E-01    17.50    0.00000E+00     0.00
  -85.00    20.00       1.21 -999.99    1.21    0.00000     0.00  LINEAR    5.37764E-01    18.46    0.00000E+00     0.00
  -80.00    20.00       1.08 -999.99    1.08    0.00000     0.00  LINEAR    5.29721E-01    21.32    0.00000E+00     0.00
  -75.00    20.00       0.86 -999.99    0.86    0.00000     0.00  LINEAR    5.16634E-01    26.06    0.00000E+00     0.00
  -70.00    20.00       0.56 -999.99    0.56    0.00000     0.00  LINEAR    4.98960E-01    32.62    0.00000E+00     0.00
  -65.00    20.00       0.17 -999.99    0.17    0.00000     0.00  LINEAR    4.77237E-01    40.96    0.00000E+00     0.00
  -60.00    20.00      -0.30 -999.99   -0.30    0.00000     0.00  LINEAR    4.51916E-01    51.02    0.00000E+00     0.00
  -55.00    20.00      -0.87 -999.99   -0.87    0.00000     0.00  LINEAR    4.23169E-01    62.75    0.00000E+00     0.00
  -50.00    20.00      -1.56 -999.99   -1.56    0.00000     0.00  LINEAR    3.90928E-01    76.07    0.00000E+00     0.00
  -45.00    20.00      -2.39 -999.99   -2.39    0.00000     0.00  LINEAR    3.55320E-01    90.81    0.00000E+00     0.00
  -40.00    20.00      -3.37 -999.99   -3.37    0.00000     0.00  LINEAR    3.17193E-01   106.72    0.00000E+00     0.00
  -35.00    20.00      -4.52 -999.99   -4.52    0.00000     0.00  LINEAR    2.77960E-01   123.66    0.00000E+00     0.00
  -30.00    20.00      -5.85 -999.99   -5.85    0.00000     0.00  LINEAR    2.38543E-01   141.66    0.00000E+00     0.00
  -25.00    20.00      -7.43 -999.99   -7.43    0.00000     0.00  LINEAR    1.98748E-01   160.79    0.00000E+00     0.00
  -20.00    20.00      -9.41 -999.99   -9.41    0.00000     0.00  LINEAR    1.58226E-01  -179.11    0.00000E+00     0.00
  -15.00    20.00     -11.99 -999.99  -11.99    0.00000     0.00  LINEAR    1.17632E-01  -158.44    0.00000E+00     0.00
  -10.00    20.00     -15.57 -999.99  -15.57    0.00000     0.00  LINEAR    7.78914E-02  -137.42    0.00000E+00     0.00
   -5.00    20.00     -21.60 -999.99  -21.60    0.00000     0.00  LINEAR    3.88890E-02  -115.96    0.00000E+00     0.00
    0.00    20.00    -999.99 -999.99 -999.99    0.00000     0.00            0.00000E+00     0.00    0.00000E+00     0.00
 -180.00    25.00    -999.99 -999.99 -999.99    0.00000     0.00            4.54864E-12    85.93    0.00000E+00     0.00
 -175.00    25.00     -21.61 -999.99  -21.61    0.00000     0.00  LINEAR    3.88744E-02  -121.08    0.00000E+00     0.00
 -170.00    25.00     -15.56 -999.99  -15.56    0.00000     0.00  LINEAR    7.79868E-02  -147.51    0.00000E+00     0.00
 -165.00    25.00     -11.96 -999.99  -11.96    0.00000     0.00  LINEAR    1.18079E-01  -173.56    0.00000E+00     0.00
 -160.00    25.00      -9.41 -999.99   -9.41    0.00000     0.00  LINEAR    1.58324E-01   160.81    0.00000E+00     0.00
 -155.00    25.00      -7.48 -999.99   -7.48    0.00000     0.00  LINEAR    1.97710E-01   136.24    0.00000E+00     0.00
 -150.00    25.00      -5.90 -999.99   -5.90    0.00000     0.00  LINEAR    2.37014E-01   112.88    0.00000E+00     0.00
 -145.00    25.00      -4.58 -999.99   -4.58    0.00000     0.00  LINEAR    2.76066E-01    90.45    0.00000E+00     0.00
 -140.00    25.00      -3.50 -999.99   -3.50    0.00000     0.00  LINEAR    3.12778E-01    69.06    0.00000E+00     0.00
 -135.00    25.00      -2.61 -999.99   -2.61    0.00000     0.00  LINEAR    3.46283E-01    49.16    0.00000E+00     0.00
 -130.00    25.00      -1.86 -999.99   -1.86    0.00000     0.00  LINEAR    3.77709E-01    30.99    0.00000E+00     0.00
 -125.00    25.00      -1.19 -999.99   -1.19    0.00000     0.00  LINEAR    4.07787E-01    14.52    0.00000E+00     0.00
 -120.00    25.00      -0.62 -999.99   -0.62    0.00000     0.00  LINEAR    4.35727E-01    -0.24    0.00000E+00     0.00
 -115.00    25.00      -0.14 -999.99   -0.14    0.00000     0.00  LINEAR    4.60260E-01   -13.10    0.00000E+00     0.00
 -110.00    25.00       0.24 -999.99    0.24    0.00000     0.00  LINEAR    4.80646E-01   -23.84    0.00000E+00     0.00
 -105.00    25.00       0.52 -999.99    0.52    0.00000     0.00  LINEAR    4.96675E-01   -32.29    0.00000E+00     0.00
 -100.00    25.00       0.72 -999.99    0.72    0.00000     0.00  LINEAR    5.08280E-01   -38.37    0.00000E+00     0.00
  -95.00    25.00       0.84 -999.99    0.84    0.00000     0.00  LINEAR    5.15340E-01   -42.03    0.00000E+00     0.00
  -90.00    25.00       0.88 -999.99    0.88    0.00000     0.00  LINEAR    5.17714E-01   -43.25    0.00000E+00     0.00
  -85.00    25.00       0.84 -999.99    0.84    0.00000     0.00  LINEAR    5.15340E-01   -42.03    0.00000E+00     0.00
  -80.00    25.00       0.72 -999.99    0.72    0.00000     0.00  LINEAR    5.08280E-01   -38.37    0.00000E+00     0.00
  -75.00    25.00       0.52 -999.99    0.52    0.00000     0.00  LINEAR    4.96675E-01   -32.29    0.00000E+00     0.00
  -70.00    25.00       0.24 -999.99    0.24    0.00000     0.00  LINEAR    4.80646E-01   -23.84    0.00000E+00     0.00
  -65.00    25.00      -0.14 -999.99   -0.14    0.00000     0.00  LINEAR    4.60260E-01   -13.10    0.00000E+00     0.00
  -60.00    25.00      -0.62 -999.99   -0.62    0.00000     0.00  LINEAR    4.35727E-01    -0.24    0.00000E+00     0.00
  -55.00    25.00      -1.19 -999.99   -1.19    0.00000     0.00  LINEAR    4.07787E-01    14.52    0.00000E+00     0.00
  -50.00    25.00      -1.86 -999.99   -1.86    0.00000     0.00  LINEAR    3.77709E-01    30.99    0.00000E+00     0.00
  -45.00    25.00      -2.61 -999.99   -2.61    0.00000     0.00  LINEAR    3.46283E-01    49.16    0.00000E+00     0.00
  -40.00    25.00      -3.50 -999.99   -3.50    0.00000     0.00  LINEAR    3.12778E-01    69.06    0.00000E+00     0.00
  -35.00    25.00      -4.58 -999.99   -4.58    0.00000     0.00  LINEAR    2.76066E-01    90.45    0.00000E+00     0.00
  -30.00    25.00      -5.90 -999.99   -5.90    0.00000     0.00  LINEAR    2.37014E-01   112.88    0.00000E+00     0.00
  -25.00    25.00      -7.48 -999.99   -7.48    0.00000     0.00  LINEAR    1.97710E-01   136.24    0.00000E+00     0.00
  -20.00    25.00      -9.41 -999.99   -9.41    0.00000     0.00  LINEAR    1.58324E-01   160.81    0.00000E+00     0.00
  -15.00    25.00     -11.96 -999.99  -11.96    0.00000     0.00  LINEAR    1.18079E-01  -173.56    0.00000E+00     0.00
  -10.00    25.00     -15.56 -999.99  -15.56    0.00000     0.00  LINEAR    7.79868E-02  -147.51    0.00000E+00     0.00
   -5.00    25.00     -21.61 -999.99  -21.61    0.00000     0.00  LINEAR    3.88744E-02  -121.08    0.00000E+00     0.00
    0.00    25.00    -999.99 -999.99 -999.99    0.00000     0.00            0.00000E+00     0.00    0.00000E+00     0.00
 -180.00    30.00    -999.99 -999.99 -999.99    0.00000     0.00            4.54864E-12    85.93    0.00000E+00     0.00
 -175.00    30.00     -21.61 -999.99  -21.61    0.00000     0.00  LINEAR    3.88638E-02  -125.98    0.00000E+00     0.00
 -170.00    30.00     -15.54 -999.99  -15.54    0.00000     0.00  LINEAR    7.81510E-02  -157.20    0.00000E+00     0.00
 -165.00    30.00     -11.94 -999.99  -11.94    0.00000     0.00  LINEAR    1.18320E-01   171.84    0.00000E+00     0.00
 -160.00    30.00      -9.44 -999.99   -9.44    0.00000     0.00  LINEAR    1.57718E-01   141.70    0.00000E+00     0.00
 -155.00    30.00      -7.52 -999.99   -7.52    0.00000     0.00  LINEAR    1.96720E-01   112.91    0.00000E+00     0.00
 -150.00    30.00      -5.96 -999.99   -5.96    0.00000     0.00  LINEAR    2.35423E-01    84.94    0.00000E+00     0.00
 -145.00    30.00      -4.74 -999.99   -4.74    0.00000     0.00  LINEAR    2.71032E-01    58.01    0.00000E+00     0.00
 -140.00    30.00      -3.75 -999.99   -3.75    0.00000     0.00  LINEAR    3.03880E-01    32.75    0.00000E+00     0.00
 -135.00    30.00      -2.87 -999.99   -2.87    0.00000     0.00  LINEAR    3.36259E-01     9.12    0.00000E+00     0.00
 -130.00    30.00      -2.10 -999.99   -2.10    0.00000     0.00  LINEAR    3.67178E-01   -13.03    0.00000E+00     0.00
 -125.00    30.00      -1.48 -999.99   -1.48    0.00000     0.00  LINEAR    3.94677E-01   -33.25    0.00000E+00     0.00
 -120.00    30.00      -0.95 -999.99   -0.95    0.00000     0.00  LINEAR    4.19041E-01   -51.04    0.00000E+00     0.00
 -115.00    30.00      -0.50 -999.99   -0.50    0.00000     0.00  LINEAR    4.41365E-01   -66.24    0.00000E+00     0.00
 -110.00    30.00      -0.12 -999.99   -0.12    0.00000     0.00  LINEAR    4.61567E-01   -78.83    0.00000E+00     0.00
 -105.00    30.00       0.20 -999.99    0.20    0.00000     0.00  LINEAR    4.78562E-01   -88.77    0.00000E+00     0.00
 -100.00    30.00       0.43 -999.99    0.43    0.00000     0.00  LINEAR    4.91270E-01   -95.97    0.00000E+00     0.00
  -95.00    30.00       0.56 -999.99    0.56    0.00000     0.00  LINEAR    4.99059E-01  -100.32    0.00000E+00     0.00
  -90.00    30.00       0.61 -999.99    0.61    0.00000     0.00  LINEAR    5.01676E-01  -101.78    0.00000E+00     0.00
  -85.00    30.00       0.56 -999.99    0.56    0.00000     0.00  LINEAR    4.99059E-01  -100.32    0.00000E+00     0.00
  -80.00    30.00       0.43 -999.99    0.43    0.00000     0.00  LINEAR    4.91270E-01   -95.97    0.00000E+00     0.00
  -75.00    30.00       0.20 -999.99    0.20    0.00000     0.00  LINEAR    4.78562E-01   -88.77    0.00000E+00     0.00
  -70.00    30.00      -0.12 -999.99   -0.12    0.00000     0.00  LINEAR    4.61567E-01   -78.83    0.00000E+00     0.00
  -65.00    30.00      -0.50 -999.99   -0.50    0.00000     0.00  LINEAR    4.41365E-01   -66.24    0.00000E+00     0.00
  -60.00    30.00      -0.95 -999.99   -0.95    0.00000     0.00  LINEAR    4.19041E-01   -51.04    0.00000E+00     0.00
  -55.00    30.00      -1.48 -999.99   -1.48    0.00000     0.00  LINEAR    3.94677E-01   -33.25    0.00000E+00     0.00
  -50.00    30.00      -2.10 -999.99   -2.10    0.00000     0.00  LINEAR    3.67178E-01   -13.03    0.00000E+00     0.00
  -45.00    30.00      -2.87 -999.99   -2.87    0.00000     0.00  LINEAR    3.36259E-01     9.12    0.00000E+00     0.00
  -40.00    30.00      -3.75 -999.99   -3.75    0.00000     0.00  LINEAR    3.03880E-01    32.75    0.00000E+00     0.00
  -35.00    30.00      -4.74 -999.99   -4.74    0.00000     0.00  LINEAR    2.71032E-01    58.01    0.00000E+00     0.00
  -30.00    30.00      -5.96 -999.99   -5.96    0.00000     0.00  LINEAR    2.35423E-01    84.94    0.00000E+00     0.00
  -25.00    30.00      -7.52 -999.99   -7.52    0.00000     0.00  LINEAR    1.96720E-01   112.91    0.00000E+00     0.00
  -20.00    30.00      -9.44 -999.99   -9.44    0.00000     0.00  LINEAR    1.57718E-01   141.70    0.00000E+00     0.00
  -15.00    30.00     -11.94 -999.99  -11.94    0.00000     0.00  LINEAR    1.18320E-01   171.84    0.00000E+00     0.00
  -10.00    30.00     -15.54 -999.99  -15.54    0.00000     0.00  LINEAR    7.81510E-02  -157.20    0.00000E+00     0.00
   -5.00    30.00     -21.61 -999.99  -21.61    0.00000     0.00  LINEAR    3.88638E-02  -125.98    0.00000E+00     0.00
    0.00    30.00    -999.99 -999.99 -999.99    0.00000     0.00            0.00000E+00     0.00    0.00000E+00     0.00
 -180.00    35.00    -999.99 -999.99 -999.99    0.00000     0.00            4.54864E-12    85.93    0.00000E+00     0.00
 -175.00    35.00     -21.61 -999.99  -21.61    0.00000     0.00  LINEAR    3.88594E-02  -130.62    0.00000E+00     0.00
 -170.00    35.00     -15.52 -999.99  -15.52    0.00000     0.00  LINEAR    7.83383E-02  -166.45    0.00000E+00     0.00
 -165.00    35.00     -11.94 -999.99  -11.94    0.00000     0.00  LINEAR    1.18236E-01   157.99    0.00000E+00     0.00
 -160.00    35.00      -9.48 -999.99   -9.48    0.00000     0.00  LINEAR    1.57029E-01   123.73    0.00000E+00     0.00
 -155.00    35.00      -7.56 -999.99   -7.56    0.00000     0.00  LINEAR    1.95780E-01    90.49    0.00000E+00     0.00
 -150.00    35.00      -6.11 -999.99   -6.11    0.00000     0.00  LINEAR    2.31579E-01    58.03    0.00000E+00     0.00
 -145.00    35.00      -4.96 -999.99   -4.96    0.00000     0.00  LINEAR    2.64366E-01    27.24    0.00000E+00     0.00
 -140.00    35.00      -3.94 -999.99   -3.94    0.00000     0.00  LINEAR    2.97078E-01    -2.16    0.00000E+00     0.00
 -135.00    35.00      -3.10 -999.99   -3.10    0.00000     0.00  LINEAR    3.27347E-01   -30.15    0.00000E+00     0.00
 -130.00    35.00      -2.40 -999.99   -2.40    0.00000     0.00  LINEAR    3.54633E-01   -55.80    0.00000E+00     0.00
[...]
  -70.00   340.00       0.60 -999.99    0.60    0.00000     0.00  LINEAR    5.01328E-01   133.98    0.00000E+00     0.00
  -65.00   340.00       0.21 -999.99    0.21    0.00000     0.00  LINEAR    4.79189E-01   126.12    0.00000E+00     0.00
  -60.00   340.00      -0.27 -999.99   -0.27    0.00000     0.00  LINEAR    4.53456E-01   116.58    0.00000E+00     0.00
  -55.00   340.00      -0.85 -999.99   -0.85    0.00000     0.00  LINEAR    4.24305E-01   105.41    0.00000E+00     0.00
  -50.00   340.00      -1.54 -999.99   -1.54    0.00000     0.00  LINEAR    3.91617E-01    92.64    0.00000E+00     0.00
  -45.00   340.00      -2.38 -999.99   -2.38    0.00000     0.00  LINEAR    3.55479E-01    78.45    0.00000E+00     0.00
  -40.00   340.00      -3.38 -999.99   -3.38    0.00000     0.00  LINEAR    3.16802E-01    63.05    0.00000E+00     0.00
  -35.00   340.00      -4.55 -999.99   -4.55    0.00000     0.00  LINEAR    2.77167E-01    46.61    0.00000E+00     0.00
  -30.00   340.00      -5.88 -999.99   -5.88    0.00000     0.00  LINEAR    2.37617E-01    29.06    0.00000E+00     0.00
  -25.00   340.00      -7.47 -999.99   -7.47    0.00000     0.00  LINEAR    1.97908E-01    10.30    0.00000E+00     0.00
  -20.00   340.00      -9.45 -999.99   -9.45    0.00000     0.00  LINEAR    1.57565E-01    -9.52    0.00000E+00     0.00
  -15.00   340.00     -12.02 -999.99  -12.02    0.00000     0.00  LINEAR    1.17176E-01   -29.99    0.00000E+00     0.00
  -10.00   340.00     -15.60 -999.99  -15.60    0.00000     0.00  LINEAR    7.76488E-02   -50.85    0.00000E+00     0.00
   -5.00   340.00     -21.62 -999.99  -21.62    0.00000     0.00  LINEAR    3.88209E-02   -72.22    0.00000E+00     0.00
    0.00   340.00    -999.99 -999.99 -999.99    0.00000     0.00            0.00000E+00     0.00    0.00000E+00     0.00
 -180.00   345.00    -999.99 -999.99 -999.99    0.00000     0.00            4.54864E-12    85.93    0.00000E+00     0.00
 -175.00   345.00     -21.61 -999.99  -21.61    0.00000     0.00  LINEAR    3.88518E-02   -77.51    0.00000E+00     0.00
 -170.00   345.00     -15.59 -999.99  -15.59    0.00000     0.00  LINEAR    7.76862E-02   -61.25    0.00000E+00     0.00
 -165.00   345.00     -12.05 -999.99  -12.05    0.00000     0.00  LINEAR    1.16870E-01   -45.42    0.00000E+00     0.00
 -160.00   345.00      -9.49 -999.99   -9.49    0.00000     0.00  LINEAR    1.56847E-01   -30.00    0.00000E+00     0.00
 -155.00   345.00      -7.48 -999.99   -7.48    0.00000     0.00  LINEAR    1.97592E-01   -15.02    0.00000E+00     0.00
 -150.00   345.00      -5.85 -999.99   -5.85    0.00000     0.00  LINEAR    2.38525E-01    -0.60    0.00000E+00     0.00
 -145.00   345.00      -4.49 -999.99   -4.49    0.00000     0.00  LINEAR    2.78966E-01    13.05    0.00000E+00     0.00
 -140.00   345.00      -3.34 -999.99   -3.34    0.00000     0.00  LINEAR    3.18562E-01    25.74    0.00000E+00     0.00
 -135.00   345.00      -2.34 -999.99   -2.34    0.00000     0.00  LINEAR    3.57233E-01    37.40    0.00000E+00     0.00
 -130.00   345.00      -1.47 -999.99   -1.47    0.00000     0.00  LINEAR    3.94786E-01    47.99    0.00000E+00     0.00
 -125.00   345.00      -0.72 -999.99   -0.72    0.00000     0.00  LINEAR    4.30655E-01    57.53    0.00000E+00     0.00
 -120.00   345.00      -0.07 -999.99   -0.07    0.00000     0.00  LINEAR    4.63950E-01    65.97    0.00000E+00     0.00
 -115.00   345.00       0.47 -999.99    0.47    0.00000     0.00  LINEAR    4.93701E-01    73.25    0.00000E+00     0.00
 -110.00   345.00       0.90 -999.99    0.90    0.00000     0.00  LINEAR    5.19057E-01    79.31    0.00000E+00     0.00
 -105.00   345.00       1.24 -999.99    1.24    0.00000     0.00  LINEAR    5.39368E-01    84.08    0.00000E+00     0.00
 -100.00   345.00       1.47 -999.99    1.47    0.00000     0.00  LINEAR    5.54177E-01    87.52    0.00000E+00     0.00
  -95.00   345.00       1.61 -999.99    1.61    0.00000     0.00  LINEAR    5.63180E-01    89.60    0.00000E+00     0.00
  -90.00   345.00       1.66 -999.99    1.66    0.00000     0.00  LINEAR    5.66200E-01    90.29    0.00000E+00     0.00
  -85.00   345.00       1.61 -999.99    1.61    0.00000     0.00  LINEAR    5.63180E-01    89.60    0.00000E+00     0.00
  -80.00   345.00       1.47 -999.99    1.47    0.00000     0.00  LINEAR    5.54177E-01    87.52    0.00000E+00     0.00
  -75.00   345.00       1.24 -999.99    1.24    0.00000     0.00  LINEAR    5.39368E-01    84.08    0.00000E+00     0.00
  -70.00   345.00       0.90 -999.99    0.90    0.00000     0.00  LINEAR    5.19057E-01    79.31    0.00000E+00     0.00
  -65.00   345.00       0.47 -999.99    0.47    0.00000     0.00  LINEAR    4.93701E-01    73.25    0.00000E+00     0.00
  -60.00   345.00      -0.07 -999.99   -0.07    0.00000     0.00  LINEAR    4.63950E-01    65.97    0.00000E+00     0.00
  -55.00   345.00      -0.72 -999.99   -0.72    0.00000     0.00  LINEAR    4.30655E-01    57.53    0.00000E+00     0.00
  -50.00   345.00      -1.47 -999.99   -1.47    0.00000     0.00  LINEAR    3.94786E-01    47.99    0.00000E+00     0.00
  -45.00   345.00      -2.34 -999.99   -2.34    0.00000     0.00  LINEAR    3.57233E-01    37.40    0.00000E+00     0.00
  -40.00   345.00      -3.34 -999.99   -3.34    0.00000     0.00  LINEAR    3.18562E-01    25.74    0.00000E+00     0.00
  -35.00   345.00      -4.49 -999.99   -4.49    0.00000     0.00  LINEAR    2.78966E-01    13.05    0.00000E+00     0.00
  -30.00   345.00      -5.85 -999.99   -5.85    0.00000     0.00  LINEAR    2.38525E-01    -0.60    0.00000E+00     0.00
  -25.00   345.00      -7.48 -999.99   -7.48    0.00000     0.00  LINEAR    1.97592E-01   -15.02    0.00000E+00     0.00
  -20.00   345.00      -9.49 -999.99   -9.49    0.00000     0.00  LINEAR    1.56847E-01   -30.00    0.00000E+00     0.00
  -15.00   345.00     -12.05 -999.99  -12.05    0.00000     0.00  LINEAR    1.16870E-01   -45.42    0.00000E+00     0.00
  -10.00   345.00     -15.59 -999.99  -15.59    0.00000     0.00  LINEAR    7.76862E-02   -61.25    0.00000E+00     0.00
   -5.00   345.00     -21.61 -999.99  -21.61    0.00000     0.00  LINEAR    3.88518E-02   -77.51    0.00000E+00     0.00
    0.00   345.00    -999.99 -999.99 -999.99    0.00000     0.00            0.00000E+00     0.00    0.00000E+00     0.00
 -180.00   350.00    -999.99 -999.99 -999.99    0.00000     0.00            4.54864E-12    85.93    0.00000E+00     0.00
 -175.00   350.00     -21.61 -999.99  -21.61    0.00000     0.00  LINEAR    3.88805E-02   -82.95    0.00000E+00     0.00
 -170.00   350.00     -15.58 -999.99  -15.58    0.00000     0.00  LINEAR    7.77960E-02   -71.97    0.00000E+00     0.00
 -165.00   350.00     -12.04 -999.99  -12.04    0.00000     0.00  LINEAR    1.16895E-01   -61.26    0.00000E+00     0.00
 -160.00   350.00      -9.52 -999.99   -9.52    0.00000     0.00  LINEAR    1.56396E-01   -50.88    0.00000E+00     0.00
 -155.00   350.00      -7.53 -999.99   -7.53    0.00000     0.00  LINEAR    1.96479E-01   -40.87    0.00000E+00     0.00
 -150.00   350.00      -5.90 -999.99   -5.90    0.00000     0.00  LINEAR    2.37151E-01   -31.26    0.00000E+00     0.00
 -145.00   350.00      -4.51 -999.99   -4.51    0.00000     0.00  LINEAR    2.78163E-01   -22.11    0.00000E+00     0.00
 -140.00   350.00      -3.32 -999.99   -3.32    0.00000     0.00  LINEAR    3.19029E-01   -13.47    0.00000E+00     0.00
 -135.00   350.00      -2.30 -999.99   -2.30    0.00000     0.00  LINEAR    3.59109E-01    -5.44    0.00000E+00     0.00
 -130.00   350.00      -1.41 -999.99   -1.41    0.00000     0.00  LINEAR    3.97704E-01     1.91    0.00000E+00     0.00
 -125.00   350.00      -0.65 -999.99   -0.65    0.00000     0.00  LINEAR    4.34109E-01     8.51    0.00000E+00     0.00
 -120.00   350.00       0.00 -999.99    0.00    0.00000     0.00  LINEAR    4.67628E-01    14.32    0.00000E+00     0.00
 -115.00   350.00       0.54 -999.99    0.54    0.00000     0.00  LINEAR    4.97572E-01    19.28    0.00000E+00     0.00
 -110.00   350.00       0.97 -999.99    0.97    0.00000     0.00  LINEAR    5.23261E-01    23.37    0.00000E+00     0.00
 -105.00   350.00       1.31 -999.99    1.31    0.00000     0.00  LINEAR    5.44048E-01    26.57    0.00000E+00     0.00
 -100.00   350.00       1.55 -999.99    1.55    0.00000     0.00  LINEAR    5.59359E-01    28.87    0.00000E+00     0.00
  -95.00   350.00       1.70 -999.99    1.70    0.00000     0.00  LINEAR    5.68740E-01    30.25    0.00000E+00     0.00
  -90.00   350.00       1.75 -999.99    1.75    0.00000     0.00  LINEAR    5.71901E-01    30.72    0.00000E+00     0.00
  -85.00   350.00       1.70 -999.99    1.70    0.00000     0.00  LINEAR    5.68740E-01    30.25    0.00000E+00     0.00
  -80.00   350.00       1.55 -999.99    1.55    0.00000     0.00  LINEAR    5.59359E-01    28.87    0.00000E+00     0.00
  -75.00   350.00       1.31 -999.99    1.31    0.00000     0.00  LINEAR    5.44048E-01    26.57    0.00000E+00     0.00
  -70.00   350.00       0.97 -999.99    0.97    0.00000     0.00  LINEAR    5.23261E-01    23.37    0.00000E+00     0.00
  -65.00   350.00       0.54 -999.99    0.54    0.00000     0.00  LINEAR    4.97572E-01    19.28    0.00000E+00     0.00
  -60.00   350.00       0.00 -999.99    0.00    0.00000     0.00  LINEAR    4.67628E-01    14.32    0.00000E+00     0.00
  -55.00   350.00      -0.65 -999.99   -0.65    0.00000     0.00  LINEAR    4.34109E-01     8.51    0.00000E+00     0.00
  -50.00   350.00      -1.41 -999.99   -1.41    0.00000     0.00  LINEAR    3.97704E-01     1.91    0.00000E+00     0.00
  -45.00   350.00      -2.30 -999.99   -2.30    0.00000     0.00  LINEAR    3.59109E-01    -5.44    0.00000E+00     0.00
  -40.00   350.00      -3.32 -999.99   -3.32    0.00000     0.00  LINEAR    3.19029E-01   -13.47    0.00000E+00     0.00
  -35.00   350.00      -4.51 -999.99   -4.51    0.00000     0.00  LINEAR    2.78163E-01   -22.11    0.00000E+00     0.00
  -30.00   350.00      -5.90 -999.99   -5.90    0.00000     0.00  LINEAR    2.37151E-01   -31.26    0.00000E+00     0.00
  -25.00   350.00      -7.53 -999.99   -7.53    0.00000     0.00  LINEAR    1.96479E-01   -40.87    0.00000E+00     0.00
  -20.00   350.00      -9.52 -999.99   -9.52    0.00000     0.00  LINEAR    1.56396E-01   -50.88    0.00000E+00     0.00
  -15.00   350.00     -12.04 -999.99  -12.04    0.00000     0.00  LINEAR    1.16895E-01   -61.26    0.00000E+00     0.00
  -10.00   350.00     -15.58 -999.99  -15.58    0.00000     0.00  LINEAR    7.77960E-02   -71.97    0.00000E+00     0.00
   -5.00   350.00     -21.61 -999.99  -21.61    0.00000     0.00  LINEAR    3.88805E-02   -82.95    0.00000E+00     0.00
    0.00   350.00    -999.99 -999.99 -999.99    0.00000     0.00            0.00000E+00     0.00    0.00000E+00     0.00
 -180.00   355.00    -999.99 -999.99 -999.99    0.00000     0.00            4.54864E-12    85.93    0.00000E+00     0.00
 -175.00   355.00     -21.60 -999.99  -21.60    0.00000     0.00  LINEAR    3.89032E-02   -88.49    0.00000E+00     0.00
 -170.00   355.00     -15.57 -999.99  -15.57    0.00000     0.00  LINEAR    7.79184E-02   -82.96    0.00000E+00     0.00
 -165.00   355.00     -12.02 -999.99  -12.02    0.00000     0.00  LINEAR    1.17158E-01   -77.53    0.00000E+00     0.00
 -160.00   355.00      -9.50 -999.99   -9.50    0.00000     0.00  LINEAR    1.56699E-01   -72.25    0.00000E+00     0.00
 -155.00   355.00      -7.53 -999.99   -7.53    0.00000     0.00  LINEAR    1.96558E-01   -67.16    0.00000E+00     0.00
 -150.00   355.00      -5.92 -999.99   -5.92    0.00000     0.00  LINEAR    2.36674E-01   -62.30    0.00000E+00     0.00
 -145.00   355.00      -4.55 -999.99   -4.55    0.00000     0.00  LINEAR    2.76877E-01   -57.70    0.00000E+00     0.00
 -140.00   355.00      -3.38 -999.99   -3.38    0.00000     0.00  LINEAR    3.16880E-01   -53.38    0.00000E+00     0.00
 -135.00   355.00      -2.36 -999.99   -2.36    0.00000     0.00  LINEAR    3.56259E-01   -49.38    0.00000E+00     0.00
 -130.00   355.00      -1.48 -999.99   -1.48    0.00000     0.00  LINEAR    3.94465E-01   -45.73    0.00000E+00     0.00
 -125.00   355.00      -0.71 -999.99   -0.71    0.00000     0.00  LINEAR    4.30831E-01   -42.43    0.00000E+00     0.00
 -120.00   355.00      -0.06 -999.99   -0.06    0.00000     0.00  LINEAR    4.64607E-01   -39.53    0.00000E+00     0.00
 -115.00   355.00       0.49 -999.99    0.49    0.00000     0.00  LINEAR    4.94994E-01   -37.03    0.00000E+00     0.00
 -110.00   355.00       0.94 -999.99    0.94    0.00000     0.00  LINEAR    5.21196E-01   -34.96    0.00000E+00     0.00
 -105.00   355.00       1.29 -999.99    1.29    0.00000     0.00  LINEAR    5.42467E-01   -33.33    0.00000E+00     0.00
 -100.00   355.00       1.54 -999.99    1.54    0.00000     0.00  LINEAR    5.58163E-01   -32.16    0.00000E+00     0.00
  -95.00   355.00       1.68 -999.99    1.68    0.00000     0.00  LINEAR    5.67790E-01   -31.46    0.00000E+00     0.00
  -90.00   355.00       1.73 -999.99    1.73    0.00000     0.00  LINEAR    5.71035E-01   -31.22    0.00000E+00     0.00
  -85.00   355.00       1.68 -999.99    1.68    0.00000     0.00  LINEAR    5.67790E-01   -31.46    0.00000E+00     0.00
  -80.00   355.00       1.54 -999.99    1.54    0.00000     0.00  LINEAR    5.58163E-01   -32.16    0.00000E+00     0.00
  -75.00   355.00       1.29 -999.99    1.29    0.00000     0.00  LINEAR    5.42467E-01   -33.33    0.00000E+00     0.00
  -70.00   355.00       0.94 -999.99    0.94    0.00000     0.00  LINEAR    5.21196E-01   -34.96    0.00000E+00     0.00
  -65.00   355.00       0.49 -999.99    0.49    0.00000     0.00  LINEAR    4.94994E-01   -37.03    0.00000E+00     0.00
  -60.00   355.00      -0.06 -999.99   -0.06    0.00000     0.00  LINEAR    4.64607E-01   -39.53    0.00000E+00     0.00
  -55.00   355.00      -0.71 -999.99   -0.71    0.00000     0.00  LINEAR    4.30831E-01   -42.43    0.00000E+00     0.00
  -50.00   355.00      -1.48 -999.99   -1.48    0.00000     0.00  LINEAR    3.94465E-01   -45.73    0.00000E+00     0.00
  -45.00   355.00      -2.36 -999.99   -2.36    0.00000     0.00  LINEAR    3.56259E-01   -49.38    0.00000E+00     0.00
  -40.00   355.00      -3.38 -999.99   -3.38    0.00000     0.00  LINEAR    3.16880E-01   -53.38    0.00000E+00     0.00
  -35.00   355.00      -4.55 -999.99   -4.55    0.00000     0.00  LINEAR    2.76877E-01   -57.70    0.00000E+00     0.00
  -30.00   355.00      -5.92 -999.99   -5.92    0.00000     0.00  LINEAR    2.36674E-01   -62.30    0.00000E+00     0.00
  -25.00   355.00      -7.53 -999.99   -7.53    0.00000     0.00  LINEAR    1.96558E-01   -67.16    0.00000E+00     0.00
  -20.00   355.00      -9.50 -999.99   -9.50    0.00000     0.00  LINEAR    1.56699E-01   -72.25    0.00000E+00     0.00
  -15.00   355.00     -12.02 -999.99  -12.02    0.00000     0.00  LINEAR    1.17158E-01   -77.53    0.00000E+00     0.00
  -10.00   355.00     -15.57 -999.99  -15.57    0.00000     0.00  LINEAR    7.79184E-02   -82.96    0.00000E+00     0.00
   -5.00   355.00     -21.60 -999.99  -21.60    0.00000     0.00  LINEAR    3.89032E-02   -88.49    0.00000E+00     0.00
    0.00   355.00    -999.99 -999.99 -999.99    0.00000     0.00            0.00000E+00     0.00    0.00000E+00     0.00
 -180.00   360.00    -999.99 -999.99 -999.99    0.00000     0.00            4.54864E-12    85.93    0.00000E+00     0.00
 -175.00   360.00     -21.60 -999.99  -21.60    0.00000     0.00  LINEAR    3.89172E-02   -94.07    0.00000E+00     0.00
 -170.00   360.00     -15.56 -999.99  -15.56    0.00000     0.00  LINEAR    7.79920E-02   -94.08    0.00000E+00     0.00
 -165.00   360.00     -12.01 -999.99  -12.01    0.00000     0.00  LINEAR    1.17356E-01   -94.09    0.00000E+00     0.00
 -160.00   360.00      -9.48 -999.99   -9.48    0.00000     0.00  LINEAR    1.57088E-01   -94.11    0.00000E+00     0.00
 -155.00   360.00      -7.50 -999.99   -7.50    0.00000     0.00  LINEAR    1.97195E-01   -94.13    0.00000E+00     0.00
 -150.00   360.00      -5.88 -999.99   -5.88    0.00000     0.00  LINEAR    2.37586E-01   -94.15    0.00000E+00     0.00
 -145.00   360.00      -4.52 -999.99   -4.52    0.00000     0.00  LINEAR    2.78058E-01   -94.17    0.00000E+00     0.00
 -140.00   360.00      -3.34 -999.99   -3.34    0.00000     0.00  LINEAR    3.18290E-01   -94.19    0.00000E+00     0.00
 -135.00   360.00      -2.33 -999.99   -2.33    0.00000     0.00  LINEAR    3.57833E-01   -94.22    0.00000E+00     0.00
 -130.00   360.00      -1.44 -999.99   -1.44    0.00000     0.00  LINEAR    3.96124E-01   -94.24    0.00000E+00     0.00
 -125.00   360.00      -0.68 -999.99   -0.68    0.00000     0.00  LINEAR    4.32498E-01   -94.26    0.00000E+00     0.00
 -120.00   360.00      -0.03 -999.99   -0.03    0.00000     0.00  LINEAR    4.66215E-01   -94.28    0.00000E+00     0.00
 -115.00   360.00       0.52 -999.99    0.52    0.00000     0.00  LINEAR    4.96497E-01   -94.30    0.00000E+00     0.00
 -110.00   360.00       0.96 -999.99    0.96    0.00000     0.00  LINEAR    5.22570E-01   -94.32    0.00000E+00     0.00
 -105.00   360.00       1.31 -999.99    1.31    0.00000     0.00  LINEAR    5.43712E-01   -94.33    0.00000E+00     0.00
 -100.00   360.00       1.55 -999.99    1.55    0.00000     0.00  LINEAR    5.59302E-01   -94.34    0.00000E+00     0.00
  -95.00   360.00       1.70 -999.99    1.70    0.00000     0.00  LINEAR    5.68859E-01   -94.34    0.00000E+00     0.00
  -90.00   360.00       1.75 -999.99    1.75    0.00000     0.00  LINEAR    5.72079E-01   -94.34    0.00000E+00     0.00
  -85.00   360.00       1.70 -999.99    1.70    0.00000     0.00  LINEAR    5.68859E-01   -94.34    0.00000E+00     0.00
  -80.00   360.00       1.55 -999.99    1.55    0.00000     0.00  LINEAR    5.59302E-01   -94.34    0.00000E+00     0.00
  -75.00   360.00       1.31 -999.99    1.31    0.00000     0.00  LINEAR    5.43712E-01   -94.33    0.00000E+00     0.00
  -70.00   360.00       0.96 -999.99    0.96    0.00000     0.00  LINEAR    5.22570E-01   -94.32    0.00000E+00     0.00
  -65.00   360.00       0.52 -999.99    0.52    0.00000     0.00  LINEAR    4.96497E-01   -94.30    0.00000E+00     0.00
  -60.00   360.00      -0.03 -999.99   -0.03    0.00000     0.00  LINEAR    4.66215E-01   -94.28    0.00000E+00     0.00
  -55.00   360.00      -0.68 -999.99   -0.68    0.00000     0.00  LINEAR    4.32498E-01   -94.26    0.00000E+00     0.00
  -50.00   360.00      -1.44 -999.99   -1.44    0.00000     0.00  LINEAR    3.96124E-01   -94.24    0.00000E+00     0.00
  -45.00   360.00      -2.33 -999.99   -2.33    0.00000     0.00  LINEAR    3.57833E-01   -94.22    0.00000E+00     0.00
  -40.00   360.00      -3.34 -999.99   -3.34    0.00000     0.00  LINEAR    3.18290E-01   -94.19    0.00000E+00     0.00
  -35.00   360.00      -4.52 -999.99   -4.52    0.00000     0.00  LINEAR    2.78058E-01   -94.17    0.00000E+00     0.00
  -30.00   360.00      -5.88 -999.99   -5.88    0.00000     0.00  LINEAR    2.37586E-01   -94.15    0.00000E+00     0.00
  -25.00   360.00      -7.50 -999.99   -7.50    0.00000     0.00  LINEAR    1.97195E-01   -94.13    0.00000E+00     0.00
  -20.00   360.00      -9.48 -999.99   -9.48    0.00000     0.00  LINEAR    1.57088E-01   -94.11    0.00000E+00     0.00
  -15.00   360.00     -12.01 -999.99  -12.01    0.00000     0.00  LINEAR    1.17356E-01   -94.09    0.00000E+00     0.00
  -10.00   360.00     -15.56 -999.99  -15.56    0.00000     0.00  LINEAR    7.79920E-02   -94.08    0.00000E+00     0.00
   -5.00   360.00     -21.60 -999.99  -21.60    0.00000     0.00  LINEAR    3.89172E-02   -94.07    0.00000E+00     0.00
    0.00   360.00    -999.99 -999.99 -999.99    0.00000     0.00            0.00000E+00     0.00    0.00000E+00     0.00


   AVERAGE POWER GAIN= 5.81619E-01       SOLID ANGLE USED IN AVERAGING=( 4.0000)*PI STERADIANS.








 ***** DATA CARD NO. 26   EN   0    37    73  1003 -1.80000E+02  0.00000E+00  5.00000E+00  5.00000E+00  0.00000E+00  0.00000E+00

 RUN TIME =     0.328
