1



                                 *********************************************

                                    NUMERICAL ELECTROMAGNETICS CODE (NEC-2D)

                                 *********************************************




                                     - - - - COMMENTS - - - -


                                                                                                     
                          forw:-999, 0 ; back: 0, 0                                                  
                                                                                                     




                                 - - - STRUCTURE SPECIFICATION - - -

                                     COORDINATES MUST BE INPUT IN
                                     METERS OR BE SCALED TO METERS
                                     BEFORE STRUCTURE INPUT IS ENDED


  WIRE                                                                               NO. OF    FIRST  LAST     TAG
  NO.        X1         Y1         Z1          X2         Y2         Z2      RADIUS   SEG.     SEG.   SEG.     NO.
     1    0.00000    0.00000   -0.17430     0.00000    0.00000    0.17430    0.00010      9        1     9       1
     2    0.00000    0.34860   -0.17430     0.00000    0.34860    0.17430    0.00010      9       10    18       2
     3    0.00000    0.69719   -0.17430     0.00000    0.69719    0.17430    0.00010      9       19    27       3
     4    0.00000    1.04579   -0.17430     0.00000    1.04579    0.17430    0.00010      9       28    36       4
     5    0.00000    1.39438   -0.17430     0.00000    1.39438    0.17430    0.00010      9       37    45       5
     6    0.00000    1.74298   -0.17430     0.00000    1.74298    0.17430    0.00010      9       46    54       6
     7    0.00000    2.09158   -0.17430     0.00000    2.09158    0.17430    0.00010      9       55    63       7
     8    0.00000    2.44017   -0.17430     0.00000    2.44017    0.17430    0.00010      9       64    72       8
     9    0.00000    2.78877   -0.17430     0.00000    2.78877    0.17430    0.00010      9       73    81       9
    10    0.00000    3.13736   -0.17430     0.00000    3.13736    0.17430    0.00010      9       82    90      10
    11    0.00000    3.48596   -0.17430     0.00000    3.48596    0.17430    0.00010      9       91    99      11
    12    0.00000    3.83455   -0.17430     0.00000    3.83455    0.17430    0.00010      9      100   108      12
    13    0.00000    4.18315   -0.17430     0.00000    4.18315    0.17430    0.00010      9      109   117      13
    14    0.00000    4.53175   -0.17430     0.00000    4.53175    0.17430    0.00010      9      118   126      14
    15    0.00000    4.88034   -0.17430     0.00000    4.88034    0.17430    0.00010      9      127   135      15
    16    0.00000    5.22894   -0.17430     0.00000    5.22894    0.17430    0.00010      9      136   144      16
    17    0.00000    5.57753   -0.17430     0.00000    5.57753    0.17430    0.00010      9      145   153      17
    18    0.00000    5.92613   -0.17430     0.00000    5.92613    0.17430    0.00010      9      154   162      18
    19    0.00000    6.27473   -0.17430     0.00000    6.27473    0.17430    0.00010      9      163   171      19
    20    0.00000    6.62332   -0.17430     0.00000    6.62332    0.17430    0.00010      9      172   180      20

   TOTAL SEGMENTS USED=  180     NO. SEG. IN A SYMMETRIC CELL=  180     SYMMETRY FLAG=  0


         - MULTIPLE WIRE JUNCTIONS -
 JUNCTION    SEGMENTS  (- FOR END 1, + FOR END 2)
  NONE




                                 - - - - SEGMENTATION DATA - - - -

                                        COORDINATES IN METERS

                         I+ AND I- INDICATE THE SEGMENTS BEFORE AND AFTER I


  SEG.   COORDINATES OF SEG. CENTER     SEG.     ORIENTATION ANGLES    WIRE    CONNECTION DATA   TAG
  NO.       X         Y         Z       LENGTH     ALPHA     BETA      RADIUS    I-   I    I+    NO.
     1   0.00000   0.00000  -0.15493   0.03873   90.00000   0.00000   0.00010     0    1    2      1
     2   0.00000   0.00000  -0.11620   0.03873   90.00000   0.00000   0.00010     1    2    3      1
     3   0.00000   0.00000  -0.07747   0.03873   90.00000   0.00000   0.00010     2    3    4      1
     4   0.00000   0.00000  -0.03873   0.03873   90.00000   0.00000   0.00010     3    4    5      1
     5   0.00000   0.00000   0.00000   0.03873   90.00000   0.00000   0.00010     4    5    6      1
     6   0.00000   0.00000   0.03873   0.03873   90.00000   0.00000   0.00010     5    6    7      1
     7   0.00000   0.00000   0.07747   0.03873   90.00000   0.00000   0.00010     6    7    8      1
     8   0.00000   0.00000   0.11620   0.03873   90.00000   0.00000   0.00010     7    8    9      1
     9   0.00000   0.00000   0.15493   0.03873   90.00000   0.00000   0.00010     8    9    0      1
    10   0.00000   0.34860  -0.15493   0.03873   90.00000   0.00000   0.00010     0   10   11      2
    11   0.00000   0.34860  -0.11620   0.03873   90.00000   0.00000   0.00010    10   11   12      2
    12   0.00000   0.34860  -0.07747   0.03873   90.00000   0.00000   0.00010    11   12   13      2
    13   0.00000   0.34860  -0.03873   0.03873   90.00000   0.00000   0.00010    12   13   14      2
    14   0.00000   0.34860   0.00000   0.03873   90.00000   0.00000   0.00010    13   14   15      2
    15   0.00000   0.34860   0.03873   0.03873   90.00000   0.00000   0.00010    14   15   16      2
    16   0.00000   0.34860   0.07747   0.03873   90.00000   0.00000   0.00010    15   16   17      2
    17   0.00000   0.34860   0.11620   0.03873   90.00000   0.00000   0.00010    16   17   18      2
    18   0.00000   0.34860   0.15493   0.03873   90.00000   0.00000   0.00010    17   18    0      2
    19   0.00000   0.69719  -0.15493   0.03873   90.00000   0.00000   0.00010     0   19   20      3
    20   0.00000   0.69719  -0.11620   0.03873   90.00000   0.00000   0.00010    19   20   21      3
    21   0.00000   0.69719  -0.07747   0.03873   90.00000   0.00000   0.00010    20   21   22      3
    22   0.00000   0.69719  -0.03873   0.03873   90.00000   0.00000   0.00010    21   22   23      3
    23   0.00000   0.69719   0.00000   0.03873   90.00000   0.00000   0.00010    22   23   24      3
    24   0.00000   0.69719   0.03873   0.03873   90.00000   0.00000   0.00010    23   24   25      3
    25   0.00000   0.69719   0.07747   0.03873   90.00000   0.00000   0.00010    24   25   26      3
    26   0.00000   0.69719   0.11620   0.03873   90.00000   0.00000   0.00010    25   26   27      3
    27   0.00000   0.69719   0.15493   0.03873   90.00000   0.00000   0.00010    26   27    0      3
    28   0.00000   1.04579  -0.15493   0.03873   90.00000   0.00000   0.00010     0   28   29      4
    29   0.00000   1.04579  -0.11620   0.03873   90.00000   0.00000   0.00010    28   29   30      4
    30   0.00000   1.04579  -0.07747   0.03873   90.00000   0.00000   0.00010    29   30   31      4
    31   0.00000   1.04579  -0.03873   0.03873   90.00000   0.00000   0.00010    30   31   32      4
    32   0.00000   1.04579   0.00000   0.03873   90.00000   0.00000   0.00010    31   32   33      4
    33   0.00000   1.04579   0.03873   0.03873   90.00000   0.00000   0.00010    32   33   34      4
    34   0.00000   1.04579   0.07747   0.03873   90.00000   0.00000   0.00010    33   34   35      4
    35   0.00000   1.04579   0.11620   0.03873   90.00000   0.00000   0.00010    34   35   36      4
    36   0.00000   1.04579   0.15493   0.03873   90.00000   0.00000   0.00010    35   36    0      4
    37   0.00000   1.39438  -0.15493   0.03873   90.00000   0.00000   0.00010     0   37   38      5
    38   0.00000   1.39438  -0.11620   0.03873   90.00000   0.00000   0.00010    37   38   39      5
    39   0.00000   1.39438  -0.07747   0.03873   90.00000   0.00000   0.00010    38   39   40      5
    40   0.00000   1.39438  -0.03873   0.03873   90.00000   0.00000   0.00010    39   40   41      5
    41   0.00000   1.39438   0.00000   0.03873   90.00000   0.00000   0.00010    40   41   42      5
    42   0.00000   1.39438   0.03873   0.03873   90.00000   0.00000   0.00010    41   42   43      5
    43   0.00000   1.39438   0.07747   0.03873   90.00000   0.00000   0.00010    42   43   44      5
    44   0.00000   1.39438   0.11620   0.03873   90.00000   0.00000   0.00010    43   44   45      5
    45   0.00000   1.39438   0.15493   0.03873   90.00000   0.00000   0.00010    44   45    0      5
    46   0.00000   1.74298  -0.15493   0.03873   90.00000   0.00000   0.00010     0   46   47      6
    47   0.00000   1.74298  -0.11620   0.03873   90.00000   0.00000   0.00010    46   47   48      6
    48   0.00000   1.74298  -0.07747   0.03873   90.00000   0.00000   0.00010    47   48   49      6
    49   0.00000   1.74298  -0.03873   0.03873   90.00000   0.00000   0.00010    48   49   50      6
    50   0.00000   1.74298   0.00000   0.03873   90.00000   0.00000   0.00010    49   50   51      6
    51   0.00000   1.74298   0.03873   0.03873   90.00000   0.00000   0.00010    50   51   52      6
    52   0.00000   1.74298   0.07747   0.03873   90.00000   0.00000   0.00010    51   52   53      6
    53   0.00000   1.74298   0.11620   0.03873   90.00000   0.00000   0.00010    52   53   54      6
    54   0.00000   1.74298   0.15493   0.03873   90.00000   0.00000   0.00010    53   54    0      6
    55   0.00000   2.09158  -0.15493   0.03873   90.00000   0.00000   0.00010     0   55   56      7
    56   0.00000   2.09158  -0.11620   0.03873   90.00000   0.00000   0.00010    55   56   57      7
    57   0.00000   2.09158  -0.07747   0.03873   90.00000   0.00000   0.00010    56   57   58      7
    58   0.00000   2.09158  -0.03873   0.03873   90.00000   0.00000   0.00010    57   58   59      7
    59   0.00000   2.09158   0.00000   0.03873   90.00000   0.00000   0.00010    58   59   60      7
    60   0.00000   2.09158   0.03873   0.03873   90.00000   0.00000   0.00010    59   60   61      7
    61   0.00000   2.09158   0.07747   0.03873   90.00000   0.00000   0.00010    60   61   62      7
    62   0.00000   2.09158   0.11620   0.03873   90.00000   0.00000   0.00010    61   62   63      7
    63   0.00000   2.09158   0.15493   0.03873   90.00000   0.00000   0.00010    62   63    0      7
    64   0.00000   2.44017  -0.15493   0.03873   90.00000   0.00000   0.00010     0   64   65      8
    65   0.00000   2.44017  -0.11620   0.03873   90.00000   0.00000   0.00010    64   65   66      8
    66   0.00000   2.44017  -0.07747   0.03873   90.00000   0.00000   0.00010    65   66   67      8
    67   0.00000   2.44017  -0.03873   0.03873   90.00000   0.00000   0.00010    66   67   68      8
    68   0.00000   2.44017   0.00000   0.03873   90.00000   0.00000   0.00010    67   68   69      8
    69   0.00000   2.44017   0.03873   0.03873   90.00000   0.00000   0.00010    68   69   70      8
    70   0.00000   2.44017   0.07747   0.03873   90.00000   0.00000   0.00010    69   70   71      8
    71   0.00000   2.44017   0.11620   0.03873   90.00000   0.00000   0.00010    70   71   72      8
    72   0.00000   2.44017   0.15493   0.03873   90.00000   0.00000   0.00010    71   72    0      8
    73   0.00000   2.78877  -0.15493   0.03873   90.00000   0.00000   0.00010     0   73   74      9
    74   0.00000   2.78877  -0.11620   0.03873   90.00000   0.00000   0.00010    73   74   75      9
    75   0.00000   2.78877  -0.07747   0.03873   90.00000   0.00000   0.00010    74   75   76      9
    76   0.00000   2.78877  -0.03873   0.03873   90.00000   0.00000   0.00010    75   76   77      9
    77   0.00000   2.78877   0.00000   0.03873   90.00000   0.00000   0.00010    76   77   78      9
    78   0.00000   2.78877   0.03873   0.03873   90.00000   0.00000   0.00010    77   78   79      9
    79   0.00000   2.78877   0.07747   0.03873   90.00000   0.00000   0.00010    78   79   80      9
    80   0.00000   2.78877   0.11620   0.03873   90.00000   0.00000   0.00010    79   80   81      9
    81   0.00000   2.78877   0.15493   0.03873   90.00000   0.00000   0.00010    80   81    0      9
    82   0.00000   3.13736  -0.15493   0.03873   90.00000   0.00000   0.00010     0   82   83     10
    83   0.00000   3.13736  -0.11620   0.03873   90.00000   0.00000   0.00010    82   83   84     10
    84   0.00000   3.13736  -0.07747   0.03873   90.00000   0.00000   0.00010    83   84   85     10
    85   0.00000   3.13736  -0.03873   0.03873   90.00000   0.00000   0.00010    84   85   86     10
    86   0.00000   3.13736   0.00000   0.03873   90.00000   0.00000   0.00010    85   86   87     10
    87   0.00000   3.13736   0.03873   0.03873   90.00000   0.00000   0.00010    86   87   88     10
    88   0.00000   3.13736   0.07747   0.03873   90.00000   0.00000   0.00010    87   88   89     10
    89   0.00000   3.13736   0.11620   0.03873   90.00000   0.00000   0.00010    88   89   90     10
    90   0.00000   3.13736   0.15493   0.03873   90.00000   0.00000   0.00010    89   90    0     10
    91   0.00000   3.48596  -0.15493   0.03873   90.00000   0.00000   0.00010     0   91   92     11
    92   0.00000   3.48596  -0.11620   0.03873   90.00000   0.00000   0.00010    91   92   93     11
    93   0.00000   3.48596  -0.07747   0.03873   90.00000   0.00000   0.00010    92   93   94     11
    94   0.00000   3.48596  -0.03873   0.03873   90.00000   0.00000   0.00010    93   94   95     11
    95   0.00000   3.48596   0.00000   0.03873   90.00000   0.00000   0.00010    94   95   96     11
    96   0.00000   3.48596   0.03873   0.03873   90.00000   0.00000   0.00010    95   96   97     11
    97   0.00000   3.48596   0.07747   0.03873   90.00000   0.00000   0.00010    96   97   98     11
    98   0.00000   3.48596   0.11620   0.03873   90.00000   0.00000   0.00010    97   98   99     11
    99   0.00000   3.48596   0.15493   0.03873   90.00000   0.00000   0.00010    98   99    0     11
   100   0.00000   3.83455  -0.15493   0.03873   90.00000   0.00000   0.00010     0  100  101     12
   101   0.00000   3.83455  -0.11620   0.03873   90.00000   0.00000   0.00010   100  101  102     12
   102   0.00000   3.83455  -0.07747   0.03873   90.00000   0.00000   0.00010   101  102  103     12
   103   0.00000   3.83455  -0.03873   0.03873   90.00000   0.00000   0.00010   102  103  104     12
   104   0.00000   3.83455   0.00000   0.03873   90.00000   0.00000   0.00010   103  104  105     12
   105   0.00000   3.83455   0.03873   0.03873   90.00000   0.00000   0.00010   104  105  106     12
   106   0.00000   3.83455   0.07747   0.03873   90.00000   0.00000   0.00010   105  106  107     12
   107   0.00000   3.83455   0.11620   0.03873   90.00000   0.00000   0.00010   106  107  108     12
   108   0.00000   3.83455   0.15493   0.03873   90.00000   0.00000   0.00010   107  108    0     12
   109   0.00000   4.18315  -0.15493   0.03873   90.00000   0.00000   0.00010     0  109  110     13
   110   0.00000   4.18315  -0.11620   0.03873   90.00000   0.00000   0.00010   109  110  111     13
   111   0.00000   4.18315  -0.07747   0.03873   90.00000   0.00000   0.00010   110  111  112     13
   112   0.00000   4.18315  -0.03873   0.03873   90.00000   0.00000   0.00010   111  112  113     13
   113   0.00000   4.18315   0.00000   0.03873   90.00000   0.00000   0.00010   112  113  114     13
   114   0.00000   4.18315   0.03873   0.03873   90.00000   0.00000   0.00010   113  114  115     13
   115   0.00000   4.18315   0.07747   0.03873   90.00000   0.00000   0.00010   114  115  116     13
   116   0.00000   4.18315   0.11620   0.03873   90.00000   0.00000   0.00010   115  116  117     13
   117   0.00000   4.18315   0.15493   0.03873   90.00000   0.00000   0.00010   116  117    0     13
   118   0.00000   4.53175  -0.15493   0.03873   90.00000   0.00000   0.00010     0  118  119     14
   119   0.00000   4.53175  -0.11620   0.03873   90.00000   0.00000   0.00010   118  119  120     14
   120   0.00000   4.53175  -0.07747   0.03873   90.00000   0.00000   0.00010   119  120  121     14
   121   0.00000   4.53175  -0.03873   0.03873   90.00000   0.00000   0.00010   120  121  122     14
   122   0.00000   4.53175   0.00000   0.03873   90.00000   0.00000   0.00010   121  122  123     14
   123   0.00000   4.53175   0.03873   0.03873   90.00000   0.00000   0.00010   122  123  124     14
   124   0.00000   4.53175   0.07747   0.03873   90.00000   0.00000   0.00010   123  124  125     14
   125   0.00000   4.53175   0.11620   0.03873   90.00000   0.00000   0.00010   124  125  126     14
   126   0.00000   4.53175   0.15493   0.03873   90.00000   0.00000   0.00010   125  126    0     14
   127   0.00000   4.88034  -0.15493   0.03873   90.00000   0.00000   0.00010     0  127  128     15
   128   0.00000   4.88034  -0.11620   0.03873   90.00000   0.00000   0.00010   127  128  129     15
   129   0.00000   4.88034  -0.07747   0.03873   90.00000   0.00000   0.00010   128  129  130     15
   130   0.00000   4.88034  -0.03873   0.03873   90.00000   0.00000   0.00010   129  130  131     15
   131   0.00000   4.88034   0.00000   0.03873   90.00000   0.00000   0.00010   130  131  132     15
   132   0.00000   4.88034   0.03873   0.03873   90.00000   0.00000   0.00010   131  132  133     15
   133   0.00000   4.88034   0.07747   0.03873   90.00000   0.00000   0.00010   132  133  134     15
   134   0.00000   4.88034   0.11620   0.03873   90.00000   0.00000   0.00010   133  134  135     15
   135   0.00000   4.88034   0.15493   0.03873   90.00000   0.00000   0.00010   134  135    0     15
   136   0.00000   5.22894  -0.15493   0.03873   90.00000   0.00000   0.00010     0  136  137     16
   137   0.00000   5.22894  -0.11620   0.03873   90.00000   0.00000   0.00010   136  137  138     16
   138   0.00000   5.22894  -0.07747   0.03873   90.00000   0.00000   0.00010   137  138  139     16
   139   0.00000   5.22894  -0.03873   0.03873   90.00000   0.00000   0.00010   138  139  140     16
   140   0.00000   5.22894   0.00000   0.03873   90.00000   0.00000   0.00010   139  140  141     16
   141   0.00000   5.22894   0.03873   0.03873   90.00000   0.00000   0.00010   140  141  142     16
   142   0.00000   5.22894   0.07747   0.03873   90.00000   0.00000   0.00010   141  142  143     16
   143   0.00000   5.22894   0.11620   0.03873   90.00000   0.00000   0.00010   142  143  144     16
   144   0.00000   5.22894   0.15493   0.03873   90.00000   0.00000   0.00010   143  144    0     16
   145   0.00000   5.57753  -0.15493   0.03873   90.00000   0.00000   0.00010     0  145  146     17
   146   0.00000   5.57753  -0.11620   0.03873   90.00000   0.00000   0.00010   145  146  147     17
   147   0.00000   5.57753  -0.07747   0.03873   90.00000   0.00000   0.00010   146  147  148     17
   148   0.00000   5.57753  -0.03873   0.03873   90.00000   0.00000   0.00010   147  148  149     17
   149   0.00000   5.57753   0.00000   0.03873   90.00000   0.00000   0.00010   148  149  150     17
   150   0.00000   5.57753   0.03873   0.03873   90.00000   0.00000   0.00010   149  150  151     17
   151   0.00000   5.57753   0.07747   0.03873   90.00000   0.00000   0.00010   150  151  152     17
   152   0.00000   5.57753   0.11620   0.03873   90.00000   0.00000   0.00010   151  152  153     17
   153   0.00000   5.57753   0.15493   0.03873   90.00000   0.00000   0.00010   152  153    0     17
   154   0.00000   5.92613  -0.15493   0.03873   90.00000   0.00000   0.00010     0  154  155     18
   155   0.00000   5.92613  -0.11620   0.03873   90.00000   0.00000   0.00010   154  155  156     18
   156   0.00000   5.92613  -0.07747   0.03873   90.00000   0.00000   0.00010   155  156  157     18
   157   0.00000   5.92613  -0.03873   0.03873   90.00000   0.00000   0.00010   156  157  158     18
   158   0.00000   5.92613   0.00000   0.03873   90.00000   0.00000   0.00010   157  158  159     18
   159   0.00000   5.92613   0.03873   0.03873   90.00000   0.00000   0.00010   158  159  160     18
   160   0.00000   5.92613   0.07747   0.03873   90.00000   0.00000   0.00010   159  160  161     18
   161   0.00000   5.92613   0.11620   0.03873   90.00000   0.00000   0.00010   160  161  162     18
   162   0.00000   5.92613   0.15493   0.03873   90.00000   0.00000   0.00010   161  162    0     18
   163   0.00000   6.27473  -0.15493   0.03873   90.00000   0.00000   0.00010     0  163  164     19
   164   0.00000   6.27473  -0.11620   0.03873   90.00000   0.00000   0.00010   163  164  165     19
   165   0.00000   6.27473  -0.07747   0.03873   90.00000   0.00000   0.00010   164  165  166     19
   166   0.00000   6.27473  -0.03873   0.03873   90.00000   0.00000   0.00010   165  166  167     19
   167   0.00000   6.27473   0.00000   0.03873   90.00000   0.00000   0.00010   166  167  168     19
   168   0.00000   6.27473   0.03873   0.03873   90.00000   0.00000   0.00010   167  168  169     19
   169   0.00000   6.27473   0.07747   0.03873   90.00000   0.00000   0.00010   168  169  170     19
   170   0.00000   6.27473   0.11620   0.03873   90.00000   0.00000   0.00010   169  170  171     19
   171   0.00000   6.27473   0.15493   0.03873   90.00000   0.00000   0.00010   170  171    0     19
   172   0.00000   6.62332  -0.15493   0.03873   90.00000   0.00000   0.00010     0  172  173     20
   173   0.00000   6.62332  -0.11620   0.03873   90.00000   0.00000   0.00010   172  173  174     20
   174   0.00000   6.62332  -0.07747   0.03873   90.00000   0.00000   0.00010   173  174  175     20
   175   0.00000   6.62332  -0.03873   0.03873   90.00000   0.00000   0.00010   174  175  176     20
   176   0.00000   6.62332   0.00000   0.03873   90.00000   0.00000   0.00010   175  176  177     20
   177   0.00000   6.62332   0.03873   0.03873   90.00000   0.00000   0.00010   176  177  178     20
   178   0.00000   6.62332   0.07747   0.03873   90.00000   0.00000   0.00010   177  178  179     20
   179   0.00000   6.62332   0.11620   0.03873   90.00000   0.00000   0.00010   178  179  180     20
   180   0.00000   6.62332   0.15493   0.03873   90.00000   0.00000   0.00010   179  180    0     20






 ***** DATA CARD NO.  1   LD   4     1     5     5  5.00000E+01  0.00000E+00  0.00000E+00  0.00000E+00  0.00000E+00  0.00000E+00
 ***** DATA CARD NO.  2   LD   4     2     5     5  5.00000E+01  0.00000E+00  0.00000E+00  0.00000E+00  0.00000E+00  0.00000E+00
 ***** DATA CARD NO.  3   LD   4     3     5     5  5.00000E+01  0.00000E+00  0.00000E+00  0.00000E+00  0.00000E+00  0.00000E+00
 ***** DATA CARD NO.  4   LD   4     4     5     5  5.00000E+01  0.00000E+00  0.00000E+00  0.00000E+00  0.00000E+00  0.00000E+00
 ***** DATA CARD NO.  5   LD   4     5     5     5  5.00000E+01  0.00000E+00  0.00000E+00  0.00000E+00  0.00000E+00  0.00000E+00
 ***** DATA CARD NO.  6   LD   4     6     5     5  5.00000E+01  0.00000E+00  0.00000E+00  0.00000E+00  0.00000E+00  0.00000E+00
 ***** DATA CARD NO.  7   LD   4     7     5     5  5.00000E+01  0.00000E+00  0.00000E+00  0.00000E+00  0.00000E+00  0.00000E+00
 ***** DATA CARD NO.  8   LD   4     8     5     5  5.00000E+01  0.00000E+00  0.00000E+00  0.00000E+00  0.00000E+00  0.00000E+00
 ***** DATA CARD NO.  9   LD   4     9     5     5  5.00000E+01  0.00000E+00  0.00000E+00  0.00000E+00  0.00000E+00  0.00000E+00
 ***** DATA CARD NO. 10   LD   4    10     5     5  5.00000E+01  0.00000E+00  0.00000E+00  0.00000E+00  0.00000E+00  0.00000E+00
 ***** DATA CARD NO. 11   LD   4    11     5     5  5.00000E+01  0.00000E+00  0.00000E+00  0.00000E+00  0.00000E+00  0.00000E+00
 ***** DATA CARD NO. 12   LD   4    12     5     5  5.00000E+01  0.00000E+00  0.00000E+00  0.00000E+00  0.00000E+00  0.00000E+00
 ***** DATA CARD NO. 13   LD   4    13     5     5  5.00000E+01  0.00000E+00  0.00000E+00  0.00000E+00  0.00000E+00  0.00000E+00
 ***** DATA CARD NO. 14   LD   4    14     5     5  5.00000E+01  0.00000E+00  0.00000E+00  0.00000E+00  0.00000E+00  0.00000E+00
 ***** DATA CARD NO. 15   LD   4    15     5     5  5.00000E+01  0.00000E+00  0.00000E+00  0.00000E+00  0.00000E+00  0.00000E+00
 ***** DATA CARD NO. 16   LD   4    16     5     5  5.00000E+01  0.00000E+00  0.00000E+00  0.00000E+00  0.00000E+00  0.00000E+00
 ***** DATA CARD NO. 17   LD   4    17     5     5  5.00000E+01  0.00000E+00  0.00000E+00  0.00000E+00  0.00000E+00  0.00000E+00
 ***** DATA CARD NO. 18   LD   4    18     5     5  5.00000E+01  0.00000E+00  0.00000E+00  0.00000E+00  0.00000E+00  0.00000E+00
 ***** DATA CARD NO. 19   LD   4    19     5     5  5.00000E+01  0.00000E+00  0.00000E+00  0.00000E+00  0.00000E+00  0.00000E+00
 ***** DATA CARD NO. 20   LD   4    20     5     5  5.00000E+01  0.00000E+00  0.00000E+00  0.00000E+00  0.00000E+00  0.00000E+00
 ***** DATA CARD NO. 21   GN  -1     0     0     0  0.00000E+00  0.00000E+00  0.00000E+00  0.00000E+00  0.00000E+00  0.00000E+00
 ***** DATA CARD NO. 22   EK   0     0     0     0  0.00000E+00  0.00000E+00  0.00000E+00  0.00000E+00  0.00000E+00  0.00000E+00
 ***** DATA CARD NO. 23   EX   0     6     5     0  1.00000E+00  0.00000E+00  0.00000E+00  0.00000E+00  0.00000E+00  0.00000E+00
 ***** DATA CARD NO. 24   FR   0     0     0     0  4.30000E+02  0.00000E+00  0.00000E+00  0.00000E+00  0.00000E+00  0.00000E+00
 ***** DATA CARD NO. 25   RP   0    37    73  1003 -1.80000E+02  0.00000E+00  5.00000E+00  5.00000E+00  0.00000E+00  0.00000E+00




                                 - - - - - - FREQUENCY - - - - - -

                                    FREQUENCY= 4.3000E+02 MHZ
                                    WAVELENGTH= 6.9721E-01 METERS




                    APPROXIMATE INTEGRATION EMPLOYED FOR SEGMENTS MORE THAN   1.000 WAVELENGTHS APART

                    THE EXTENDED THIN WIRE KERNEL WILL BE USED



                               - - - STRUCTURE IMPEDANCE LOADING - - -


       LOCATION          RESISTANCE   INDUCTANCE  CAPACITANCE       IMPEDANCE (OHMS)     CONDUCTIVITY    TYPE
    ITAG FROM THRU          OHMS        HENRYS       FARADS        REAL      IMAGINARY    MHOS/METER

       1    5    5                                             5.0000E+01                             FIXED IMPEDANCE 

       2    5    5                                             5.0000E+01                             FIXED IMPEDANCE 

       3    5    5                                             5.0000E+01                             FIXED IMPEDANCE 

       4    5    5                                             5.0000E+01                             FIXED IMPEDANCE 

       5    5    5                                             5.0000E+01                             FIXED IMPEDANCE 

       6    5    5                                             5.0000E+01                             FIXED IMPEDANCE 

       7    5    5                                             5.0000E+01                             FIXED IMPEDANCE 

       8    5    5                                             5.0000E+01                             FIXED IMPEDANCE 

       9    5    5                                             5.0000E+01                             FIXED IMPEDANCE 

      10    5    5                                             5.0000E+01                             FIXED IMPEDANCE 

      11    5    5                                             5.0000E+01                             FIXED IMPEDANCE 

      12    5    5                                             5.0000E+01                             FIXED IMPEDANCE 

      13    5    5                                             5.0000E+01                             FIXED IMPEDANCE 

      14    5    5                                             5.0000E+01                             FIXED IMPEDANCE 

      15    5    5                                             5.0000E+01                             FIXED IMPEDANCE 

      16    5    5                                             5.0000E+01                             FIXED IMPEDANCE 

      17    5    5                                             5.0000E+01                             FIXED IMPEDANCE 

      18    5    5                                             5.0000E+01                             FIXED IMPEDANCE 

      19    5    5                                             5.0000E+01                             FIXED IMPEDANCE 

      20    5    5                                             5.0000E+01                             FIXED IMPEDANCE 



                                  - - - ANTENNA ENVIRONMENT - - -

                                            FREE SPACE



                                - - - MATRIX TIMING - - -

                        FILL=    0.031 SEC.,  FACTOR=    0.016 SEC.



                                          - - - ANTENNA INPUT PARAMETERS - - -

   TAG   SEG.    VOLTAGE (VOLTS)         CURRENT (AMPS)         IMPEDANCE (OHMS)        ADMITTANCE (MHOS)      POWER
   NO.   NO.    REAL        IMAG.       REAL        IMAG.       REAL        IMAG.       REAL        IMAG.     (WATTS)
     6    50 1.00000E+00 0.00000E+00 7.30085E-03-1.43919E-03 1.31847E+02 2.59904E+01 7.30085E-03-1.43919E-03 3.65043E-03



                             - - - CURRENTS AND LOCATION - - -

                                 DISTANCES IN WAVELENGTHS


  SEG.  TAG    COORD. OF SEG. CENTER     SEG.            - - - CURRENT (AMPS) - - -
  NO.   NO.     X        Y        Z      LENGTH     REAL        IMAG.       MAG.        PHASE
     1    1   0.0000   0.0000  -0.2222  0.05555   3.2818E-05  9.7619E-07  3.2833E-05    1.704
     2    1   0.0000   0.0000  -0.1667  0.05555   8.8488E-05  1.4124E-06  8.8499E-05    0.914
     3    1   0.0000   0.0000  -0.1111  0.05555   1.3185E-04  2.1178E-07  1.3185E-04    0.092
     4    1   0.0000   0.0000  -0.0556  0.05555   1.5973E-04 -2.4018E-06  1.5975E-04   -0.861
     5    1   0.0000   0.0000   0.0000  0.05555   1.6931E-04 -5.2472E-06  1.6939E-04   -1.775
     6    1   0.0000   0.0000   0.0556  0.05555   1.5973E-04 -2.4018E-06  1.5975E-04   -0.861
     7    1   0.0000   0.0000   0.1111  0.05555   1.3185E-04  2.1178E-07  1.3185E-04    0.092
     8    1   0.0000   0.0000   0.1667  0.05555   8.8488E-05  1.4124E-06  8.8499E-05    0.914
     9    1   0.0000   0.0000   0.2222  0.05555   3.2818E-05  9.7619E-07  3.2833E-05    1.704
    10    2   0.0000   0.5000  -0.2222  0.05555  -3.9195E-05  1.5143E-06  3.9225E-05  177.788
    11    2   0.0000   0.5000  -0.1667  0.05555  -1.0565E-04  5.5470E-06  1.0580E-04  176.995
    12    2   0.0000   0.5000  -0.1111  0.05555  -1.5734E-04  1.0532E-05  1.5770E-04  176.170
    13    2   0.0000   0.5000  -0.0556  0.05555  -1.9045E-04  1.5937E-05  1.9111E-04  175.217
    14    2   0.0000   0.5000   0.0000  0.05555  -2.0166E-04  2.0118E-05  2.0266E-04  174.303
    15    2   0.0000   0.5000   0.0556  0.05555  -1.9045E-04  1.5937E-05  1.9111E-04  175.217
    16    2   0.0000   0.5000   0.1111  0.05555  -1.5734E-04  1.0532E-05  1.5770E-04  176.170
    17    2   0.0000   0.5000   0.1667  0.05555  -1.0565E-04  5.5470E-06  1.0580E-04  176.995
    18    2   0.0000   0.5000   0.2222  0.05555  -3.9195E-05  1.5143E-06  3.9225E-05  177.788
    19    3   0.0000   1.0000  -0.2222  0.05555   5.6710E-05  1.5508E-06  5.6732E-05    1.566
    20    3   0.0000   1.0000  -0.1667  0.05555   1.5290E-04  2.0413E-06  1.5291E-04    0.765
    21    3   0.0000   1.0000  -0.1111  0.05555   2.2782E-04 -2.6147E-07  2.2782E-04   -0.066
    22    3   0.0000   1.0000  -0.0556  0.05555   2.7598E-04 -4.9324E-06  2.7602E-04   -1.024
    23    3   0.0000   1.0000   0.0000  0.05555   2.9251E-04 -9.9034E-06  2.9268E-04   -1.939
    24    3   0.0000   1.0000   0.0556  0.05555   2.7598E-04 -4.9324E-06  2.7602E-04   -1.024
    25    3   0.0000   1.0000   0.1111  0.05555   2.2782E-04 -2.6147E-07  2.2782E-04   -0.066
    26    3   0.0000   1.0000   0.1667  0.05555   1.5290E-04  2.0413E-06  1.5291E-04    0.765
    27    3   0.0000   1.0000   0.2222  0.05555   5.6710E-05  1.5508E-06  5.6732E-05    1.566
    28    4   0.0000   1.5000  -0.2222  0.05555  -9.9798E-05 -1.7885E-05  1.0139E-04 -169.840
    29    4   0.0000   1.5000  -0.1667  0.05555  -2.6919E-04 -4.4366E-05  2.7282E-04 -170.641
    30    4   0.0000   1.5000  -0.1111  0.05555  -4.0154E-04 -6.0191E-05  4.0603E-04 -171.475
    31    4   0.0000   1.5000  -0.0556  0.05555  -4.8737E-04 -6.4714E-05  4.9165E-04 -172.436
    32    4   0.0000   1.5000   0.0000  0.05555  -5.1771E-04 -6.0331E-05  5.2121E-04 -173.353
    33    4   0.0000   1.5000   0.0556  0.05555  -4.8737E-04 -6.4714E-05  4.9165E-04 -172.436
    34    4   0.0000   1.5000   0.1111  0.05555  -4.0154E-04 -6.0191E-05  4.0603E-04 -171.475
    35    4   0.0000   1.5000   0.1667  0.05555  -2.6919E-04 -4.4366E-05  2.7282E-04 -170.641
    36    4   0.0000   1.5000   0.2222  0.05555  -9.9798E-05 -1.7885E-05  1.0139E-04 -169.840
    37    5   0.0000   2.0000  -0.2222  0.05555   2.6569E-04  1.2339E-04  2.9295E-04   24.910
    38    5   0.0000   2.0000  -0.1667  0.05555   7.1610E-04  3.2405E-04  7.8600E-04   24.348
    39    5   0.0000   2.0000  -0.1111  0.05555   1.0690E-03  4.6873E-04  1.1672E-03   23.676
    40    5   0.0000   2.0000  -0.0556  0.05555   1.3011E-03  5.4716E-04  1.4115E-03   22.808
    41    5   0.0000   2.0000   0.0000  0.05555   1.3876E-03  5.5839E-04  1.4957E-03   21.921
    42    5   0.0000   2.0000   0.0556  0.05555   1.3011E-03  5.4716E-04  1.4115E-03   22.808
    43    5   0.0000   2.0000   0.1111  0.05555   1.0690E-03  4.6873E-04  1.1672E-03   23.676
    44    5   0.0000   2.0000   0.1667  0.05555   7.1610E-04  3.2405E-04  7.8600E-04   24.348
    45    5   0.0000   2.0000   0.2222  0.05555   2.6569E-04  1.2339E-04  2.9295E-04   24.910
    46    6   0.0000   2.4999  -0.2222  0.05555   1.4329E-03 -4.0809E-04  1.4899E-03  -15.897
    47    6   0.0000   2.4999  -0.1667  0.05555   3.8507E-03 -1.0338E-03  3.9870E-03  -15.028
    48    6   0.0000   2.4999  -0.1111  0.05555   5.7199E-03 -1.4234E-03  5.8943E-03  -13.975
    49    6   0.0000   2.4999  -0.0556  0.05555   6.9072E-03 -1.5427E-03  7.0774E-03  -12.590
    50    6   0.0000   2.4999   0.0000  0.05555   7.3009E-03 -1.4392E-03  7.4414E-03  -11.151
    51    6   0.0000   2.4999   0.0556  0.05555   6.9072E-03 -1.5427E-03  7.0774E-03  -12.590
    52    6   0.0000   2.4999   0.1111  0.05555   5.7199E-03 -1.4234E-03  5.8943E-03  -13.975
    53    6   0.0000   2.4999   0.1667  0.05555   3.8507E-03 -1.0338E-03  3.9870E-03  -15.028
    54    6   0.0000   2.4999   0.2222  0.05555   1.4329E-03 -4.0809E-04  1.4899E-03  -15.897
    55    7   0.0000   2.9999  -0.2222  0.05555   2.6519E-04  1.2323E-04  2.9242E-04   24.923
    56    7   0.0000   2.9999  -0.1667  0.05555   7.1472E-04  3.2363E-04  7.8458E-04   24.361
    57    7   0.0000   2.9999  -0.1111  0.05555   1.0669E-03  4.6814E-04  1.1651E-03   23.691
    58    7   0.0000   2.9999  -0.0556  0.05555   1.2986E-03  5.4648E-04  1.4089E-03   22.822
    59    7   0.0000   2.9999   0.0000  0.05555   1.3849E-03  5.5772E-04  1.4930E-03   21.936
    60    7   0.0000   2.9999   0.0556  0.05555   1.2986E-03  5.4648E-04  1.4089E-03   22.822
    61    7   0.0000   2.9999   0.1111  0.05555   1.0669E-03  4.6814E-04  1.1651E-03   23.691
    62    7   0.0000   2.9999   0.1667  0.05555   7.1472E-04  3.2363E-04  7.8458E-04   24.361
    63    7   0.0000   2.9999   0.2222  0.05555   2.6519E-04  1.2323E-04  2.9242E-04   24.923
    64    8   0.0000   3.4999  -0.2222  0.05555  -9.8695E-05 -1.7517E-05  1.0024E-04 -169.936
    65    8   0.0000   3.4999  -0.1667  0.05555  -2.6621E-04 -4.3414E-05  2.6972E-04 -170.737
    66    8   0.0000   3.4999  -0.1111  0.05555  -3.9707E-04 -5.8835E-05  4.0141E-04 -171.572
    67    8   0.0000   3.4999  -0.0556  0.05555  -4.8192E-04 -6.3162E-05  4.8604E-04 -172.533
    68    8   0.0000   3.4999   0.0000  0.05555  -5.1191E-04 -5.8777E-05  5.1527E-04 -173.450
    69    8   0.0000   3.4999   0.0556  0.05555  -4.8192E-04 -6.3162E-05  4.8604E-04 -172.533
    70    8   0.0000   3.4999   0.1111  0.05555  -3.9707E-04 -5.8835E-05  4.0141E-04 -171.572
    71    8   0.0000   3.4999   0.1667  0.05555  -2.6621E-04 -4.3414E-05  2.6972E-04 -170.737
    72    8   0.0000   3.4999   0.2222  0.05555  -9.8695E-05 -1.7517E-05  1.0024E-04 -169.936
    73    9   0.0000   3.9999  -0.2222  0.05555   5.4784E-05  8.1706E-07  5.4790E-05    0.854
    74    9   0.0000   3.9999  -0.1667  0.05555   1.4768E-04  1.3504E-07  1.4768E-04    0.052
    75    9   0.0000   3.9999  -0.1111  0.05555   2.2000E-04 -2.9900E-06  2.2002E-04   -0.779
    76    9   0.0000   3.9999  -0.0556  0.05555   2.6645E-04 -8.0804E-06  2.6657E-04   -1.737
    77    9   0.0000   3.9999   0.0000  0.05555   2.8236E-04 -1.3080E-05  2.8266E-04   -2.652
    78    9   0.0000   3.9999   0.0556  0.05555   2.6645E-04 -8.0804E-06  2.6657E-04   -1.737
    79    9   0.0000   3.9999   0.1111  0.05555   2.2000E-04 -2.9900E-06  2.2002E-04   -0.779
    80    9   0.0000   3.9999   0.1667  0.05555   1.4768E-04  1.3504E-07  1.4768E-04    0.052
    81    9   0.0000   3.9999   0.2222  0.05555   5.4784E-05  8.1706E-07  5.4790E-05    0.854
    82   10   0.0000   4.4999  -0.2222  0.05555  -3.5861E-05  3.1165E-06  3.5996E-05  175.033
    83   10   0.0000   4.4999  -0.1667  0.05555  -9.6612E-05  9.7374E-06  9.7101E-05  174.245
    84   10   0.0000   4.4999  -0.1111  0.05555  -1.4379E-04  1.6577E-05  1.4475E-04  173.424
    85   10   0.0000   4.4999  -0.0556  0.05555  -1.7391E-04  2.2984E-05  1.7543E-04  172.472
    86   10   0.0000   4.4999   0.0000  0.05555  -1.8401E-04  2.7309E-05  1.8603E-04  171.559
    87   10   0.0000   4.4999   0.0556  0.05555  -1.7391E-04  2.2984E-05  1.7543E-04  172.472
    88   10   0.0000   4.4999   0.1111  0.05555  -1.4379E-04  1.6577E-05  1.4475E-04  173.424
    89   10   0.0000   4.4999   0.1667  0.05555  -9.6612E-05  9.7374E-06  9.7101E-05  174.245
    90   10   0.0000   4.4999   0.2222  0.05555  -3.5861E-05  3.1165E-06  3.5996E-05  175.033
    91   11   0.0000   4.9999  -0.2222  0.05555   2.5832E-05 -4.0925E-06  2.6154E-05   -9.002
    92   11   0.0000   4.9999  -0.1667  0.05555   6.9561E-05 -1.1988E-05  7.0587E-05   -9.778
    93   11   0.0000   4.9999  -0.1111  0.05555   1.0346E-04 -1.9344E-05  1.0526E-04  -10.590
    94   11   0.0000   4.9999  -0.0556  0.05555   1.2501E-04 -2.5518E-05  1.2759E-04  -11.537
    95   11   0.0000   4.9999   0.0000  0.05555   1.3213E-04 -2.9167E-05  1.3531E-04  -12.448
    96   11   0.0000   4.9999   0.0556  0.05555   1.2501E-04 -2.5518E-05  1.2759E-04  -11.537
    97   11   0.0000   4.9999   0.1111  0.05555   1.0346E-04 -1.9344E-05  1.0526E-04  -10.590
    98   11   0.0000   4.9999   0.1667  0.05555   6.9561E-05 -1.1988E-05  7.0587E-05   -9.778
    99   11   0.0000   4.9999   0.2222  0.05555   2.5832E-05 -4.0925E-06  2.6154E-05   -9.002
   100   12   0.0000   5.4999  -0.2222  0.05555  -1.9826E-05  4.1981E-06  2.0265E-05  168.044
   101   12   0.0000   5.4999  -0.1667  0.05555  -5.3370E-05  1.2048E-05  5.4713E-05  167.279
   102   12   0.0000   5.4999  -0.1111  0.05555  -7.9340E-05  1.9085E-05  8.1603E-05  166.475
   103   12   0.0000   5.4999  -0.0556  0.05555  -9.5793E-05  2.4716E-05  9.8930E-05  165.532
   104   12   0.0000   5.4999   0.0000  0.05555  -1.0116E-04  2.7823E-05  1.0492E-04  164.622
   105   12   0.0000   5.4999   0.0556  0.05555  -9.5793E-05  2.4716E-05  9.8930E-05  165.532
   106   12   0.0000   5.4999   0.1111  0.05555  -7.9340E-05  1.9085E-05  8.1603E-05  166.475
   107   12   0.0000   5.4999   0.1667  0.05555  -5.3370E-05  1.2048E-05  5.4713E-05  167.279
   108   12   0.0000   5.4999   0.2222  0.05555  -1.9826E-05  4.1981E-06  2.0265E-05  168.044
   109   13   0.0000   5.9998  -0.2222  0.05555   1.5926E-05 -4.0227E-06  1.6427E-05  -14.175
   110   13   0.0000   5.9998  -0.1667  0.05555   4.2862E-05 -1.1430E-05  4.4359E-05  -14.932
   111   13   0.0000   5.9998  -0.1111  0.05555   6.3693E-05 -1.7940E-05  6.6171E-05  -15.730
   112   13   0.0000   5.9998  -0.0556  0.05555   7.6857E-05 -2.3013E-05  8.0228E-05  -16.669
   113   13   0.0000   5.9998   0.0000  0.05555   8.1115E-05 -2.5697E-05  8.5088E-05  -17.578
   114   13   0.0000   5.9998   0.0556  0.05555   7.6857E-05 -2.3013E-05  8.0228E-05  -16.669
   115   13   0.0000   5.9998   0.1111  0.05555   6.3693E-05 -1.7940E-05  6.6171E-05  -15.730
   116   13   0.0000   5.9998   0.1667  0.05555   4.2862E-05 -1.1430E-05  4.4359E-05  -14.932
   117   13   0.0000   5.9998   0.2222  0.05555   1.5926E-05 -4.0227E-06  1.6427E-05  -14.175
   118   14   0.0000   6.4998  -0.2222  0.05555  -1.3250E-05  3.7603E-06  1.3773E-05  164.157
   119   14   0.0000   6.4998  -0.1667  0.05555  -3.5652E-05  1.0624E-05  3.7201E-05  163.407
   120   14   0.0000   6.4998  -0.1111  0.05555  -5.2964E-05  1.6585E-05  5.5500E-05  162.613
   121   14   0.0000   6.4998  -0.0556  0.05555  -6.3882E-05  2.1156E-05  6.7294E-05  161.677
   122   14   0.0000   6.4998   0.0000  0.05555  -6.7389E-05  2.3508E-05  7.1372E-05  160.769
   123   14   0.0000   6.4998   0.0556  0.05555  -6.3882E-05  2.1156E-05  6.7294E-05  161.677
   124   14   0.0000   6.4998   0.1111  0.05555  -5.2964E-05  1.6585E-05  5.5500E-05  162.613
   125   14   0.0000   6.4998   0.1667  0.05555  -3.5652E-05  1.0624E-05  3.7201E-05  163.407
   126   14   0.0000   6.4998   0.2222  0.05555  -1.3250E-05  3.7603E-06  1.3773E-05  164.157
   127   15   0.0000   6.9998  -0.2222  0.05555   1.1346E-05 -3.4795E-06  1.1867E-05  -17.050
   128   15   0.0000   6.9998  -0.1667  0.05555   3.0524E-05 -9.7964E-06  3.2057E-05  -17.794
   129   15   0.0000   6.9998  -0.1111  0.05555   4.5336E-05 -1.5243E-05  4.7830E-05  -18.584
   130   15   0.0000   6.9998  -0.0556  0.05555   5.4664E-05 -1.9377E-05  5.7997E-05  -19.518
   131   15   0.0000   6.9998   0.0000  0.05555   5.7645E-05 -2.1466E-05  6.1512E-05  -20.425
   132   15   0.0000   6.9998   0.0556  0.05555   5.4664E-05 -1.9377E-05  5.7997E-05  -19.518
   133   15   0.0000   6.9998   0.1111  0.05555   4.5336E-05 -1.5243E-05  4.7830E-05  -18.584
   134   15   0.0000   6.9998   0.1667  0.05555   3.0524E-05 -9.7964E-06  3.2057E-05  -17.794
   135   15   0.0000   6.9998   0.2222  0.05555   1.1346E-05 -3.4795E-06  1.1867E-05  -17.050
   136   16   0.0000   7.4998  -0.2222  0.05555  -9.9669E-06  3.2011E-06  1.0468E-05  162.194
   137   16   0.0000   7.4998  -0.1667  0.05555  -2.6812E-05  8.9950E-06  2.8281E-05  161.454
   138   16   0.0000   7.4998  -0.1111  0.05555  -3.9819E-05  1.3970E-05  4.2198E-05  160.667
   139   16   0.0000   7.4998  -0.0556  0.05555  -4.8002E-05  1.7724E-05  5.1170E-05  159.734
   140   16   0.0000   7.4998   0.0000  0.05555  -5.0608E-05  1.9601E-05  5.4272E-05  158.828
   141   16   0.0000   7.4998   0.0556  0.05555  -4.8002E-05  1.7724E-05  5.1170E-05  159.734
   142   16   0.0000   7.4998   0.1111  0.05555  -3.9819E-05  1.3970E-05  4.2198E-05  160.667
   143   16   0.0000   7.4998   0.1667  0.05555  -2.6812E-05  8.9950E-06  2.8281E-05  161.454
   144   16   0.0000   7.4998   0.2222  0.05555  -9.9669E-06  3.2011E-06  1.0468E-05  162.194
   145   17   0.0000   7.9998  -0.2222  0.05555   8.9809E-06 -2.9229E-06  9.4445E-06  -18.028
   146   17   0.0000   7.9998  -0.1667  0.05555   2.4160E-05 -8.2089E-06  2.5517E-05  -18.766
   147   17   0.0000   7.9998  -0.1111  0.05555   3.5880E-05 -1.2743E-05  3.8075E-05  -19.552
   148   17   0.0000   7.9998  -0.0556  0.05555   4.3252E-05 -1.6158E-05  4.6171E-05  -20.484
   149   17   0.0000   7.9998   0.0000  0.05555   4.5597E-05 -1.7861E-05  4.8971E-05  -21.390
   150   17   0.0000   7.9998   0.0556  0.05555   4.3252E-05 -1.6158E-05  4.6171E-05  -20.484
   151   17   0.0000   7.9998   0.1111  0.05555   3.5880E-05 -1.2743E-05  3.8075E-05  -19.552
   152   17   0.0000   7.9998   0.1667  0.05555   2.4160E-05 -8.2089E-06  2.5517E-05  -18.766
   153   17   0.0000   7.9998   0.2222  0.05555   8.9809E-06 -2.9229E-06  9.4445E-06  -18.028
   154   18   0.0000   8.4998  -0.2222  0.05555  -8.3374E-06  2.6182E-06  8.7389E-06  162.566
   155   18   0.0000   8.4998  -0.1667  0.05555  -2.2433E-05  7.3643E-06  2.3611E-05  161.826
   156   18   0.0000   8.4998  -0.1111  0.05555  -3.3319E-05  1.1448E-05  3.5231E-05  161.038
   157   18   0.0000   8.4998  -0.0556  0.05555  -4.0173E-05  1.4538E-05  4.2723E-05  160.106
   158   18   0.0000   8.4998   0.0000  0.05555  -4.2360E-05  1.6092E-05  4.5313E-05  159.199
   159   18   0.0000   8.4998   0.0556  0.05555  -4.0173E-05  1.4538E-05  4.2723E-05  160.106
   160   18   0.0000   8.4998   0.1111  0.05555  -3.3319E-05  1.1448E-05  3.5231E-05  161.038
   161   18   0.0000   8.4998   0.1667  0.05555  -2.2433E-05  7.3643E-06  2.3611E-05  161.826
   162   18   0.0000   8.4998   0.2222  0.05555  -8.3374E-06  2.6182E-06  8.7389E-06  162.566
   163   19   0.0000   8.9998  -0.2222  0.05555   8.1016E-06 -2.1844E-06  8.3910E-06  -15.089
   164   19   0.0000   8.9998  -0.1667  0.05555   2.1807E-05 -6.1876E-06  2.2668E-05  -15.841
   165   19   0.0000   8.9998  -0.1111  0.05555   3.2405E-05 -9.6831E-06  3.3821E-05  -16.637
   166   19   0.0000   8.9998  -0.0556  0.05555   3.9097E-05 -1.2383E-05  4.1011E-05  -17.574
   167   19   0.0000   8.9998   0.0000  0.05555   4.1254E-05 -1.3789E-05  4.3497E-05  -18.482
   168   19   0.0000   8.9998   0.0556  0.05555   3.9097E-05 -1.2383E-05  4.1011E-05  -17.574
   169   19   0.0000   8.9998   0.1111  0.05555   3.2405E-05 -9.6831E-06  3.3821E-05  -16.637
   170   19   0.0000   8.9998   0.1667  0.05555   2.1807E-05 -6.1876E-06  2.2668E-05  -15.841
   171   19   0.0000   8.9998   0.2222  0.05555   8.1016E-06 -2.1844E-06  8.3910E-06  -15.089
   172   20   0.0000   9.4998  -0.2222  0.05555  -8.8464E-06  9.9715E-07  8.9024E-06  173.569
   173   20   0.0000   9.4998  -0.1667  0.05555  -2.3827E-05  3.0118E-06  2.4017E-05  172.796
   174   20   0.0000   9.4998  -0.1111  0.05555  -3.5452E-05  4.9920E-06  3.5802E-05  171.985
   175   20   0.0000   9.4998  -0.0556  0.05555  -4.2861E-05  6.7591E-06  4.3391E-05  171.038
   176   20   0.0000   9.4998   0.0000  0.05555  -4.5332E-05  7.8896E-06  4.6013E-05  170.127
   177   20   0.0000   9.4998   0.0556  0.05555  -4.2861E-05  6.7591E-06  4.3391E-05  171.038
   178   20   0.0000   9.4998   0.1111  0.05555  -3.5452E-05  4.9920E-06  3.5802E-05  171.985
   179   20   0.0000   9.4998   0.1667  0.05555  -2.3827E-05  3.0118E-06  2.4017E-05  172.796
   180   20   0.0000   9.4998   0.2222  0.05555  -8.8464E-06  9.9715E-07  8.9024E-06  173.569



                                        - - - POWER BUDGET - - -

                                           INPUT POWER   = 3.6504E-03 WATTS
                                           RADIATED POWER= 2.1328E-03 WATTS
                                           STRUCTURE LOSS= 1.5176E-03 WATTS
                                           NETWORK LOSS  = 0.0000E+00 WATTS
                                           EFFICIENCY    =  58.43 PERCENT



                                                - - - RADIATION PATTERNS - - -

  - - ANGLES - -           - POWER GAINS -       - - - POLARIZATION - - -    - - - E(THETA) - - -    - - - E(PHI) - - -
  THETA     PHI        VERT.   HOR.    TOTAL      AXIAL     TILT   SENSE     MAGNITUDE    PHASE      MAGNITUDE    PHASE 
 DEGREES  DEGREES       DB      DB      DB        RATIO     DEG.              VOLTS/M    DEGREES      VOLTS/M    DEGREES
 -180.00     0.00    -999.99 -999.99 -999.99    0.00000     0.00            4.61672E-12    86.11    0.00000E+00     0.00
 -175.00     0.00     -21.47 -999.99  -21.47    0.00000     0.00  LINEAR    3.94997E-02   -93.89    0.00000E+00     0.00
 -170.00     0.00     -15.43 -999.99  -15.43    0.00000     0.00  LINEAR    7.91592E-02   -93.89    0.00000E+00     0.00
 -165.00     0.00     -11.88 -999.99  -11.88    0.00000     0.00  LINEAR    1.19112E-01   -93.91    0.00000E+00     0.00
 -160.00     0.00      -9.35 -999.99   -9.35    0.00000     0.00  LINEAR    1.59439E-01   -93.92    0.00000E+00     0.00
 -155.00     0.00      -7.38 -999.99   -7.38    0.00000     0.00  LINEAR    2.00145E-01   -93.94    0.00000E+00     0.00
 -150.00     0.00      -5.76 -999.99   -5.76    0.00000     0.00  LINEAR    2.41139E-01   -93.96    0.00000E+00     0.00
 -145.00     0.00      -4.39 -999.99   -4.39    0.00000     0.00  LINEAR    2.82216E-01   -93.98    0.00000E+00     0.00
 -140.00     0.00      -3.22 -999.99   -3.22    0.00000     0.00  LINEAR    3.23048E-01   -94.00    0.00000E+00     0.00
 -135.00     0.00      -2.20 -999.99   -2.20    0.00000     0.00  LINEAR    3.63181E-01   -94.03    0.00000E+00     0.00
 -130.00     0.00      -1.32 -999.99   -1.32    0.00000     0.00  LINEAR    4.02043E-01   -94.05    0.00000E+00     0.00
 -125.00     0.00      -0.55 -999.99   -0.55    0.00000     0.00  LINEAR    4.38959E-01   -94.07    0.00000E+00     0.00
 -120.00     0.00       0.10 -999.99    0.10    0.00000     0.00  LINEAR    4.73178E-01   -94.09    0.00000E+00     0.00
 -115.00     0.00       0.65 -999.99    0.65    0.00000     0.00  LINEAR    5.03910E-01   -94.11    0.00000E+00     0.00
 -110.00     0.00       1.09 -999.99    1.09    0.00000     0.00  LINEAR    5.30371E-01   -94.12    0.00000E+00     0.00
 -105.00     0.00       1.43 -999.99    1.43    0.00000     0.00  LINEAR    5.51829E-01   -94.13    0.00000E+00     0.00
 -100.00     0.00       1.68 -999.99    1.68    0.00000     0.00  LINEAR    5.67650E-01   -94.14    0.00000E+00     0.00
  -95.00     0.00       1.83 -999.99    1.83    0.00000     0.00  LINEAR    5.77349E-01   -94.15    0.00000E+00     0.00
  -90.00     0.00       1.88 -999.99    1.88    0.00000     0.00  LINEAR    5.80617E-01   -94.15    0.00000E+00     0.00
  -85.00     0.00       1.83 -999.99    1.83    0.00000     0.00  LINEAR    5.77349E-01   -94.15    0.00000E+00     0.00
  -80.00     0.00       1.68 -999.99    1.68    0.00000     0.00  LINEAR    5.67650E-01   -94.14    0.00000E+00     0.00
  -75.00     0.00       1.43 -999.99    1.43    0.00000     0.00  LINEAR    5.51829E-01   -94.13    0.00000E+00     0.00
  -70.00     0.00       1.09 -999.99    1.09    0.00000     0.00  LINEAR    5.30371E-01   -94.12    0.00000E+00     0.00
  -65.00     0.00       0.65 -999.99    0.65    0.00000     0.00  LINEAR    5.03910E-01   -94.11    0.00000E+00     0.00
  -60.00     0.00       0.10 -999.99    0.10    0.00000     0.00  LINEAR    4.73178E-01   -94.09    0.00000E+00     0.00
  -55.00     0.00      -0.55 -999.99   -0.55    0.00000     0.00  LINEAR    4.38959E-01   -94.07    0.00000E+00     0.00
  -50.00     0.00      -1.32 -999.99   -1.32    0.00000     0.00  LINEAR    4.02043E-01   -94.05    0.00000E+00     0.00
  -45.00     0.00      -2.20 -999.99   -2.20    0.00000     0.00  LINEAR    3.63181E-01   -94.03    0.00000E+00     0.00
  -40.00     0.00      -3.22 -999.99   -3.22    0.00000     0.00  LINEAR    3.23048E-01   -94.00    0.00000E+00     0.00
  -35.00     0.00      -4.39 -999.99   -4.39    0.00000     0.00  LINEAR    2.82216E-01   -93.98    0.00000E+00     0.00
  -30.00     0.00      -5.76 -999.99   -5.76    0.00000     0.00  LINEAR    2.41139E-01   -93.96    0.00000E+00     0.00
  -25.00     0.00      -7.38 -999.99   -7.38    0.00000     0.00  LINEAR    2.00145E-01   -93.94    0.00000E+00     0.00
  -20.00     0.00      -9.35 -999.99   -9.35    0.00000     0.00  LINEAR    1.59439E-01   -93.92    0.00000E+00     0.00
  -15.00     0.00     -11.88 -999.99  -11.88    0.00000     0.00  LINEAR    1.19112E-01   -93.91    0.00000E+00     0.00
  -10.00     0.00     -15.43 -999.99  -15.43    0.00000     0.00  LINEAR    7.91592E-02   -93.89    0.00000E+00     0.00
   -5.00     0.00     -21.47 -999.99  -21.47    0.00000     0.00  LINEAR    3.94997E-02   -93.89    0.00000E+00     0.00
    0.00     0.00    -999.99 -999.99 -999.99    0.00000     0.00            0.00000E+00     0.00    0.00000E+00     0.00
 -180.00     5.00    -999.99 -999.99 -999.99    0.00000     0.00            4.61672E-12    86.11    0.00000E+00     0.00
 -175.00     5.00     -21.47 -999.99  -21.47    0.00000     0.00  LINEAR    3.94955E-02  -100.61    0.00000E+00     0.00
 -170.00     5.00     -15.43 -999.99  -15.43    0.00000     0.00  LINEAR    7.91495E-02  -107.30    0.00000E+00     0.00
 -165.00     5.00     -11.88 -999.99  -11.88    0.00000     0.00  LINEAR    1.19101E-01  -113.91    0.00000E+00     0.00
 -160.00     5.00      -9.35 -999.99   -9.35    0.00000     0.00  LINEAR    1.59424E-01  -120.39    0.00000E+00     0.00
 -155.00     5.00      -7.38 -999.99   -7.38    0.00000     0.00  LINEAR    2.00108E-01  -126.69    0.00000E+00     0.00
 -150.00     5.00      -5.76 -999.99   -5.76    0.00000     0.00  LINEAR    2.41036E-01  -132.76    0.00000E+00     0.00
 -145.00     5.00      -4.40 -999.99   -4.40    0.00000     0.00  LINEAR    2.81973E-01  -138.56    0.00000E+00     0.00
 -140.00     5.00      -3.23 -999.99   -3.23    0.00000     0.00  LINEAR    3.22569E-01  -144.02    0.00000E+00     0.00
 -135.00     5.00      -2.22 -999.99   -2.22    0.00000     0.00  LINEAR    3.62355E-01  -149.12    0.00000E+00     0.00
 -130.00     5.00      -1.34 -999.99   -1.34    0.00000     0.00  LINEAR    4.00760E-01  -153.80    0.00000E+00     0.00
 -125.00     5.00      -0.59 -999.99   -0.59    0.00000     0.00  LINEAR    4.37126E-01  -158.02    0.00000E+00     0.00
 -120.00     5.00       0.05 -999.99    0.05    0.00000     0.00  LINEAR    4.70734E-01  -161.75    0.00000E+00     0.00
 -115.00     5.00       0.59 -999.99    0.59    0.00000     0.00  LINEAR    5.00836E-01  -164.96    0.00000E+00     0.00
 -110.00     5.00       1.03 -999.99    1.03    0.00000     0.00  LINEAR    5.26694E-01  -167.62    0.00000E+00     0.00
 -105.00     5.00       1.37 -999.99    1.37    0.00000     0.00  LINEAR    5.47623E-01  -169.71    0.00000E+00     0.00
 -100.00     5.00       1.61 -999.99    1.61    0.00000     0.00  LINEAR    5.63034E-01  -171.22    0.00000E+00     0.00
  -95.00     5.00       1.75 -999.99    1.75    0.00000     0.00  LINEAR    5.72472E-01  -172.13    0.00000E+00     0.00
  -90.00     5.00       1.80 -999.99    1.80    0.00000     0.00  LINEAR    5.75651E-01  -172.43    0.00000E+00     0.00
  -85.00     5.00       1.75 -999.99    1.75    0.00000     0.00  LINEAR    5.72472E-01  -172.13    0.00000E+00     0.00
  -80.00     5.00       1.61 -999.99    1.61    0.00000     0.00  LINEAR    5.63034E-01  -171.22    0.00000E+00     0.00
  -75.00     5.00       1.37 -999.99    1.37    0.00000     0.00  LINEAR    5.47623E-01  -169.71    0.00000E+00     0.00
  -70.00     5.00       1.03 -999.99    1.03    0.00000     0.00  LINEAR    5.26694E-01  -167.62    0.00000E+00     0.00
  -65.00     5.00       0.59 -999.99    0.59    0.00000     0.00  LINEAR    5.00836E-01  -164.96    0.00000E+00     0.00
  -60.00     5.00       0.05 -999.99    0.05    0.00000     0.00  LINEAR    4.70734E-01  -161.75    0.00000E+00     0.00
  -55.00     5.00      -0.59 -999.99   -0.59    0.00000     0.00  LINEAR    4.37126E-01  -158.02    0.00000E+00     0.00
  -50.00     5.00      -1.34 -999.99   -1.34    0.00000     0.00  LINEAR    4.00760E-01  -153.80    0.00000E+00     0.00
  -45.00     5.00      -2.22 -999.99   -2.22    0.00000     0.00  LINEAR    3.62355E-01  -149.12    0.00000E+00     0.00
  -40.00     5.00      -3.23 -999.99   -3.23    0.00000     0.00  LINEAR    3.22569E-01  -144.02    0.00000E+00     0.00
  -35.00     5.00      -4.40 -999.99   -4.40    0.00000     0.00  LINEAR    2.81973E-01  -138.56    0.00000E+00     0.00
  -30.00     5.00      -5.76 -999.99   -5.76    0.00000     0.00  LINEAR    2.41036E-01  -132.76    0.00000E+00     0.00
  -25.00     5.00      -7.38 -999.99   -7.38    0.00000     0.00  LINEAR    2.00108E-01  -126.69    0.00000E+00     0.00
  -20.00     5.00      -9.35 -999.99   -9.35    0.00000     0.00  LINEAR    1.59424E-01  -120.39    0.00000E+00     0.00
  -15.00     5.00     -11.88 -999.99  -11.88    0.00000     0.00  LINEAR    1.19101E-01  -113.91    0.00000E+00     0.00
  -10.00     5.00     -15.43 -999.99  -15.43    0.00000     0.00  LINEAR    7.91495E-02  -107.30    0.00000E+00     0.00
   -5.00     5.00     -21.47 -999.99  -21.47    0.00000     0.00  LINEAR    3.94955E-02  -100.61    0.00000E+00     0.00
    0.00     5.00    -999.99 -999.99 -999.99    0.00000     0.00            0.00000E+00     0.00    0.00000E+00     0.00
 -180.00    10.00    -999.99 -999.99 -999.99    0.00000     0.00            4.61672E-12    86.11    0.00000E+00     0.00
 -175.00    10.00     -21.47 -999.99  -21.47    0.00000     0.00  LINEAR    3.94949E-02  -107.29    0.00000E+00     0.00
 -170.00    10.00     -15.43 -999.99  -15.43    0.00000     0.00  LINEAR    7.91524E-02  -120.67    0.00000E+00     0.00
 -165.00    10.00     -11.89 -999.99  -11.89    0.00000     0.00  LINEAR    1.19054E-01  -133.93    0.00000E+00     0.00
 -160.00    10.00      -9.37 -999.99   -9.37    0.00000     0.00  LINEAR    1.59134E-01  -146.99    0.00000E+00     0.00
 -155.00    10.00      -7.42 -999.99   -7.42    0.00000     0.00  LINEAR    1.99221E-01  -159.70    0.00000E+00     0.00
 -150.00    10.00      -5.83 -999.99   -5.83    0.00000     0.00  LINEAR    2.39107E-01  -171.93    0.00000E+00     0.00
 -145.00    10.00      -4.50 -999.99   -4.50    0.00000     0.00  LINEAR    2.78598E-01   176.43    0.00000E+00     0.00
 -140.00    10.00      -3.37 -999.99   -3.37    0.00000     0.00  LINEAR    3.17500E-01   165.50    0.00000E+00     0.00
 -135.00    10.00      -2.38 -999.99   -2.38    0.00000     0.00  LINEAR    3.55557E-01   155.35    0.00000E+00     0.00
 -130.00    10.00      -1.53 -999.99   -1.53    0.00000     0.00  LINEAR    3.92388E-01   146.05    0.00000E+00     0.00
 -125.00    10.00      -0.78 -999.99   -0.78    0.00000     0.00  LINEAR    4.27456E-01   137.66    0.00000E+00     0.00
 -120.00    10.00      -0.15 -999.99   -0.15    0.00000     0.00  LINEAR    4.60077E-01   130.24    0.00000E+00     0.00
 -115.00    10.00       0.39 -999.99    0.39    0.00000     0.00  LINEAR    4.89479E-01   123.85    0.00000E+00     0.00
 -110.00    10.00       0.83 -999.99    0.83    0.00000     0.00  LINEAR    5.14867E-01   118.55    0.00000E+00     0.00
 -105.00    10.00       1.17 -999.99    1.17    0.00000     0.00  LINEAR    5.35496E-01   114.37    0.00000E+00     0.00
 -100.00    10.00       1.42 -999.99    1.42    0.00000     0.00  LINEAR    5.50724E-01   111.35    0.00000E+00     0.00
  -95.00    10.00       1.56 -999.99    1.56    0.00000     0.00  LINEAR    5.60065E-01   109.53    0.00000E+00     0.00
  -90.00    10.00       1.61 -999.99    1.61    0.00000     0.00  LINEAR    5.63213E-01   108.93    0.00000E+00     0.00
  -85.00    10.00       1.56 -999.99    1.56    0.00000     0.00  LINEAR    5.60065E-01   109.53    0.00000E+00     0.00
  -80.00    10.00       1.42 -999.99    1.42    0.00000     0.00  LINEAR    5.50724E-01   111.35    0.00000E+00     0.00
  -75.00    10.00       1.17 -999.99    1.17    0.00000     0.00  LINEAR    5.35496E-01   114.37    0.00000E+00     0.00
  -70.00    10.00       0.83 -999.99    0.83    0.00000     0.00  LINEAR    5.14867E-01   118.55    0.00000E+00     0.00
  -65.00    10.00       0.39 -999.99    0.39    0.00000     0.00  LINEAR    4.89479E-01   123.85    0.00000E+00     0.00
  -60.00    10.00      -0.15 -999.99   -0.15    0.00000     0.00  LINEAR    4.60077E-01   130.24    0.00000E+00     0.00
  -55.00    10.00      -0.78 -999.99   -0.78    0.00000     0.00  LINEAR    4.27456E-01   137.66    0.00000E+00     0.00
  -50.00    10.00      -1.53 -999.99   -1.53    0.00000     0.00  LINEAR    3.92388E-01   146.05    0.00000E+00     0.00
  -45.00    10.00      -2.38 -999.99   -2.38    0.00000     0.00  LINEAR    3.55557E-01   155.35    0.00000E+00     0.00
  -40.00    10.00      -3.37 -999.99   -3.37    0.00000     0.00  LINEAR    3.17500E-01   165.50    0.00000E+00     0.00
  -35.00    10.00      -4.50 -999.99   -4.50    0.00000     0.00  LINEAR    2.78598E-01   176.43    0.00000E+00     0.00
  -30.00    10.00      -5.83 -999.99   -5.83    0.00000     0.00  LINEAR    2.39107E-01  -171.93    0.00000E+00     0.00
  -25.00    10.00      -7.42 -999.99   -7.42    0.00000     0.00  LINEAR    1.99221E-01  -159.70    0.00000E+00     0.00
  -20.00    10.00      -9.37 -999.99   -9.37    0.00000     0.00  LINEAR    1.59134E-01  -146.99    0.00000E+00     0.00
  -15.00    10.00     -11.89 -999.99  -11.89    0.00000     0.00  LINEAR    1.19054E-01  -133.93    0.00000E+00     0.00
  -10.00    10.00     -15.43 -999.99  -15.43    0.00000     0.00  LINEAR    7.91524E-02  -120.67    0.00000E+00     0.00
   -5.00    10.00     -21.47 -999.99  -21.47    0.00000     0.00  LINEAR    3.94949E-02  -107.29    0.00000E+00     0.00
    0.00    10.00    -999.99 -999.99 -999.99    0.00000     0.00            0.00000E+00     0.00    0.00000E+00     0.00
 -180.00    15.00    -999.99 -999.99 -999.99    0.00000     0.00            4.61672E-12    86.11    0.00000E+00     0.00
 -175.00    15.00     -21.47 -999.99  -21.47    0.00000     0.00  LINEAR    3.94961E-02  -113.89    0.00000E+00     0.00
 -170.00    15.00     -15.44 -999.99  -15.44    0.00000     0.00  LINEAR    7.91209E-02  -133.92    0.00000E+00     0.00
 -165.00    15.00     -11.91 -999.99  -11.91    0.00000     0.00  LINEAR    1.18730E-01  -153.86    0.00000E+00     0.00
 -160.00    15.00      -9.43 -999.99   -9.43    0.00000     0.00  LINEAR    1.58008E-01  -173.44    0.00000E+00     0.00
 -155.00    15.00      -7.52 -999.99   -7.52    0.00000     0.00  LINEAR    1.96869E-01   167.60    0.00000E+00     0.00
 -150.00    15.00      -5.96 -999.99   -5.96    0.00000     0.00  LINEAR    2.35588E-01   149.42    0.00000E+00     0.00
 -145.00    15.00      -4.63 -999.99   -4.63    0.00000     0.00  LINEAR    2.74485E-01   132.11    0.00000E+00     0.00
 -140.00    15.00      -3.48 -999.99   -3.48    0.00000     0.00  LINEAR    3.13507E-01   115.76    0.00000E+00     0.00
 -135.00    15.00      -2.47 -999.99   -2.47    0.00000     0.00  LINEAR    3.52097E-01   100.45    0.00000E+00     0.00
 -130.00    15.00      -1.59 -999.99   -1.59    0.00000     0.00  LINEAR    3.89405E-01    86.34    0.00000E+00     0.00
 -125.00    15.00      -0.84 -999.99   -0.84    0.00000     0.00  LINEAR    4.24561E-01    73.60    0.00000E+00     0.00
 -120.00    15.00      -0.21 -999.99   -0.21    0.00000     0.00  LINEAR    4.56818E-01    62.36    0.00000E+00     0.00
 -115.00    15.00       0.32 -999.99    0.32    0.00000     0.00  LINEAR    4.85540E-01    52.74    0.00000E+00     0.00
 -110.00    15.00       0.75 -999.99    0.75    0.00000     0.00  LINEAR    5.10142E-01    44.79    0.00000E+00     0.00
 -105.00    15.00       1.08 -999.99    1.08    0.00000     0.00  LINEAR    5.30048E-01    38.56    0.00000E+00     0.00
 -100.00    15.00       1.32 -999.99    1.32    0.00000     0.00  LINEAR    5.44723E-01    34.09    0.00000E+00     0.00
  -95.00    15.00       1.46 -999.99    1.46    0.00000     0.00  LINEAR    5.53725E-01    31.40    0.00000E+00     0.00
  -90.00    15.00       1.51 -999.99    1.51    0.00000     0.00  LINEAR    5.56759E-01    30.50    0.00000E+00     0.00
  -85.00    15.00       1.46 -999.99    1.46    0.00000     0.00  LINEAR    5.53725E-01    31.40    0.00000E+00     0.00
  -80.00    15.00       1.32 -999.99    1.32    0.00000     0.00  LINEAR    5.44723E-01    34.09    0.00000E+00     0.00
  -75.00    15.00       1.08 -999.99    1.08    0.00000     0.00  LINEAR    5.30048E-01    38.56    0.00000E+00     0.00
  -70.00    15.00       0.75 -999.99    0.75    0.00000     0.00  LINEAR    5.10142E-01    44.79    0.00000E+00     0.00
  -65.00    15.00       0.32 -999.99    0.32    0.00000     0.00  LINEAR    4.85540E-01    52.74    0.00000E+00     0.00
  -60.00    15.00      -0.21 -999.99   -0.21    0.00000     0.00  LINEAR    4.56818E-01    62.36    0.00000E+00     0.00
  -55.00    15.00      -0.84 -999.99   -0.84    0.00000     0.00  LINEAR    4.24561E-01    73.60    0.00000E+00     0.00
  -50.00    15.00      -1.59 -999.99   -1.59    0.00000     0.00  LINEAR    3.89405E-01    86.34    0.00000E+00     0.00
  -45.00    15.00      -2.47 -999.99   -2.47    0.00000     0.00  LINEAR    3.52097E-01   100.45    0.00000E+00     0.00
  -40.00    15.00      -3.48 -999.99   -3.48    0.00000     0.00  LINEAR    3.13507E-01   115.76    0.00000E+00     0.00
  -35.00    15.00      -4.63 -999.99   -4.63    0.00000     0.00  LINEAR    2.74485E-01   132.11    0.00000E+00     0.00
  -30.00    15.00      -5.96 -999.99   -5.96    0.00000     0.00  LINEAR    2.35588E-01   149.42    0.00000E+00     0.00
  -25.00    15.00      -7.52 -999.99   -7.52    0.00000     0.00  LINEAR    1.96869E-01   167.60    0.00000E+00     0.00
  -20.00    15.00      -9.43 -999.99   -9.43    0.00000     0.00  LINEAR    1.58008E-01  -173.44    0.00000E+00     0.00
  -15.00    15.00     -11.91 -999.99  -11.91    0.00000     0.00  LINEAR    1.18730E-01  -153.86    0.00000E+00     0.00
  -10.00    15.00     -15.44 -999.99  -15.44    0.00000     0.00  LINEAR    7.91209E-02  -133.92    0.00000E+00     0.00
   -5.00    15.00     -21.47 -999.99  -21.47    0.00000     0.00  LINEAR    3.94961E-02  -113.89    0.00000E+00     0.00
    0.00    15.00    -999.99 -999.99 -999.99    0.00000     0.00            0.00000E+00     0.00    0.00000E+00     0.00
 -180.00    20.00    -999.99 -999.99 -999.99    0.00000     0.00            4.61672E-12    86.11    0.00000E+00     0.00
 -175.00    20.00     -21.47 -999.99  -21.47    0.00000     0.00  LINEAR    3.94964E-02  -120.35    0.00000E+00     0.00
 -170.00    20.00     -15.45 -999.99  -15.45    0.00000     0.00  LINEAR    7.90086E-02  -146.96    0.00000E+00     0.00
 -165.00    20.00     -11.96 -999.99  -11.96    0.00000     0.00  LINEAR    1.18043E-01  -173.42    0.00000E+00     0.00
 -160.00    20.00      -9.52 -999.99   -9.52    0.00000     0.00  LINEAR    1.56400E-01   160.72    0.00000E+00     0.00
 -155.00    20.00      -7.61 -999.99   -7.61    0.00000     0.00  LINEAR    1.94803E-01   135.71    0.00000E+00     0.00
 -150.00    20.00      -6.02 -999.99   -6.02    0.00000     0.00  LINEAR    2.33934E-01   111.55    0.00000E+00     0.00
 -145.00    20.00      -4.67 -999.99   -4.67    0.00000     0.00  LINEAR    2.73377E-01    88.35    0.00000E+00     0.00
 -140.00    20.00      -3.52 -999.99   -3.52    0.00000     0.00  LINEAR    3.12076E-01    66.42    0.00000E+00     0.00
 -135.00    20.00      -2.54 -999.99   -2.54    0.00000     0.00  LINEAR    3.49385E-01    46.14    0.00000E+00     0.00
 -130.00    20.00      -1.69 -999.99   -1.69    0.00000     0.00  LINEAR    3.85249E-01    27.72    0.00000E+00     0.00
 -125.00    20.00      -0.95 -999.99   -0.95    0.00000     0.00  LINEAR    4.19580E-01    11.23    0.00000E+00     0.00
 -120.00    20.00      -0.30 -999.99   -0.30    0.00000     0.00  LINEAR    4.51766E-01    -3.30    0.00000E+00     0.00
 -115.00    20.00       0.24 -999.99    0.24    0.00000     0.00  LINEAR    4.80784E-01   -15.81    0.00000E+00     0.00
 -110.00    20.00       0.67 -999.99    0.67    0.00000     0.00  LINEAR    5.05601E-01   -26.21    0.00000E+00     0.00
 -105.00    20.00       1.01 -999.99    1.01    0.00000     0.00  LINEAR    5.25449E-01   -34.40    0.00000E+00     0.00
 -100.00    20.00       1.24 -999.99    1.24    0.00000     0.00  LINEAR    5.39857E-01   -40.31    0.00000E+00     0.00
  -95.00    20.00       1.38 -999.99    1.38    0.00000     0.00  LINEAR    5.48579E-01   -43.88    0.00000E+00     0.00
  -90.00    20.00       1.43 -999.99    1.43    0.00000     0.00  LINEAR    5.51497E-01   -45.07    0.00000E+00     0.00
  -85.00    20.00       1.38 -999.99    1.38    0.00000     0.00  LINEAR    5.48579E-01   -43.88    0.00000E+00     0.00
  -80.00    20.00       1.24 -999.99    1.24    0.00000     0.00  LINEAR    5.39857E-01   -40.31    0.00000E+00     0.00
  -75.00    20.00       1.01 -999.99    1.01    0.00000     0.00  LINEAR    5.25449E-01   -34.40    0.00000E+00     0.00
  -70.00    20.00       0.67 -999.99    0.67    0.00000     0.00  LINEAR    5.05601E-01   -26.21    0.00000E+00     0.00
  -65.00    20.00       0.24 -999.99    0.24    0.00000     0.00  LINEAR    4.80784E-01   -15.81    0.00000E+00     0.00
  -60.00    20.00      -0.30 -999.99   -0.30    0.00000     0.00  LINEAR    4.51766E-01    -3.30    0.00000E+00     0.00
  -55.00    20.00      -0.95 -999.99   -0.95    0.00000     0.00  LINEAR    4.19580E-01    11.23    0.00000E+00     0.00
  -50.00    20.00      -1.69 -999.99   -1.69    0.00000     0.00  LINEAR    3.85249E-01    27.72    0.00000E+00     0.00
  -45.00    20.00      -2.54 -999.99   -2.54    0.00000     0.00  LINEAR    3.49385E-01    46.14    0.00000E+00     0.00
  -40.00    20.00      -3.52 -999.99   -3.52    0.00000     0.00  LINEAR    3.12076E-01    66.42    0.00000E+00     0.00
  -35.00    20.00      -4.67 -999.99   -4.67    0.00000     0.00  LINEAR    2.73377E-01    88.35    0.00000E+00     0.00
  -30.00    20.00      -6.02 -999.99   -6.02    0.00000     0.00  LINEAR    2.33934E-01   111.55    0.00000E+00     0.00
  -25.00    20.00      -7.61 -999.99   -7.61    0.00000     0.00  LINEAR    1.94803E-01   135.71    0.00000E+00     0.00
  -20.00    20.00      -9.52 -999.99   -9.52    0.00000     0.00  LINEAR    1.56400E-01   160.72    0.00000E+00     0.00
  -15.00    20.00     -11.96 -999.99  -11.96    0.00000     0.00  LINEAR    1.18043E-01  -173.42    0.00000E+00     0.00
  -10.00    20.00     -15.45 -999.99  -15.45    0.00000     0.00  LINEAR    7.90086E-02  -146.96    0.00000E+00     0.00
   -5.00    20.00     -21.47 -999.99  -21.47    0.00000     0.00  LINEAR    3.94964E-02  -120.35    0.00000E+00     0.00
    0.00    20.00    -999.99 -999.99 -999.99    0.00000     0.00            0.00000E+00     0.00    0.00000E+00     0.00
 -180.00    25.00    -999.99 -999.99 -999.99    0.00000     0.00            4.61672E-12    86.11    0.00000E+00     0.00
 -175.00    25.00     -21.47 -999.99  -21.47    0.00000     0.00  LINEAR    3.94930E-02  -126.64    0.00000E+00     0.00
 -170.00    25.00     -15.47 -999.99  -15.47    0.00000     0.00  LINEAR    7.87944E-02  -159.65    0.00000E+00     0.00
 -165.00    25.00     -12.03 -999.99  -12.03    0.00000     0.00  LINEAR    1.17162E-01   167.63    0.00000E+00     0.00
 -160.00    25.00      -9.59 -999.99   -9.59    0.00000     0.00  LINEAR    1.55183E-01   135.73    0.00000E+00     0.00
 -155.00    25.00      -7.64 -999.99   -7.64    0.00000     0.00  LINEAR    1.94075E-01   104.60    0.00000E+00     0.00
 -150.00    25.00      -6.05 -999.99   -6.05    0.00000     0.00  LINEAR    2.33228E-01    74.37    0.00000E+00     0.00
 -145.00    25.00      -4.73 -999.99   -4.73    0.00000     0.00  LINEAR    2.71448E-01    45.68    0.00000E+00     0.00
 -140.00    25.00      -3.60 -999.99   -3.60    0.00000     0.00  LINEAR    3.09069E-01    19.01    0.00000E+00     0.00
 -135.00    25.00      -2.60 -999.99   -2.60    0.00000     0.00  LINEAR    3.46667E-01    -5.62    0.00000E+00     0.00
 -130.00    25.00      -1.74 -999.99   -1.74    0.00000     0.00  LINEAR    3.83125E-01   -28.27    0.00000E+00     0.00
 -125.00    25.00      -1.01 -999.99   -1.01    0.00000     0.00  LINEAR    4.16384E-01   -48.80    0.00000E+00     0.00
 -120.00    25.00      -0.43 -999.99   -0.43    0.00000     0.00  LINEAR    4.45209E-01   -66.94    0.00000E+00     0.00
 -115.00    25.00       0.03 -999.99    0.03    0.00000     0.00  LINEAR    4.69531E-01   -82.49    0.00000E+00     0.00
 -110.00    25.00       0.40 -999.99    0.40    0.00000     0.00  LINEAR    4.89679E-01   -95.33    0.00000E+00     0.00
 -105.00    25.00       0.68 -999.99    0.68    0.00000     0.00  LINEAR    5.05755E-01  -105.41    0.00000E+00     0.00
 -100.00    25.00       0.88 -999.99    0.88    0.00000     0.00  LINEAR    5.17559E-01  -112.66    0.00000E+00     0.00
  -95.00    25.00       1.00 -999.99    1.00    0.00000     0.00  LINEAR    5.24794E-01  -117.04    0.00000E+00     0.00
  -90.00    25.00       1.04 -999.99    1.04    0.00000     0.00  LINEAR    5.27233E-01  -118.51    0.00000E+00     0.00
  -85.00    25.00       1.00 -999.99    1.00    0.00000     0.00  LINEAR    5.24794E-01  -117.04    0.00000E+00     0.00
  -80.00    25.00       0.88 -999.99    0.88    0.00000     0.00  LINEAR    5.17559E-01  -112.66    0.00000E+00     0.00
  -75.00    25.00       0.68 -999.99    0.68    0.00000     0.00  LINEAR    5.05755E-01  -105.41    0.00000E+00     0.00
  -70.00    25.00       0.40 -999.99    0.40    0.00000     0.00  LINEAR    4.89679E-01   -95.33    0.00000E+00     0.00
  -65.00    25.00       0.03 -999.99    0.03    0.00000     0.00  LINEAR    4.69531E-01   -82.49    0.00000E+00     0.00
  -60.00    25.00      -0.43 -999.99   -0.43    0.00000     0.00  LINEAR    4.45209E-01   -66.94    0.00000E+00     0.00
  -55.00    25.00      -1.01 -999.99   -1.01    0.00000     0.00  LINEAR    4.16384E-01   -48.80    0.00000E+00     0.00
  -50.00    25.00      -1.74 -999.99   -1.74    0.00000     0.00  LINEAR    3.83125E-01   -28.27    0.00000E+00     0.00
  -45.00    25.00      -2.60 -999.99   -2.60    0.00000     0.00  LINEAR    3.46667E-01    -5.62    0.00000E+00     0.00
  -40.00    25.00      -3.60 -999.99   -3.60    0.00000     0.00  LINEAR    3.09069E-01    19.01    0.00000E+00     0.00
  -35.00    25.00      -4.73 -999.99   -4.73    0.00000     0.00  LINEAR    2.71448E-01    45.68    0.00000E+00     0.00
  -30.00    25.00      -6.05 -999.99   -6.05    0.00000     0.00  LINEAR    2.33228E-01    74.37    0.00000E+00     0.00
  -25.00    25.00      -7.64 -999.99   -7.64    0.00000     0.00  LINEAR    1.94075E-01   104.60    0.00000E+00     0.00
  -20.00    25.00      -9.59 -999.99   -9.59    0.00000     0.00  LINEAR    1.55183E-01   135.73    0.00000E+00     0.00
  -15.00    25.00     -12.03 -999.99  -12.03    0.00000     0.00  LINEAR    1.17162E-01   167.63    0.00000E+00     0.00
  -10.00    25.00     -15.47 -999.99  -15.47    0.00000     0.00  LINEAR    7.87944E-02  -159.65    0.00000E+00     0.00
   -5.00    25.00     -21.47 -999.99  -21.47    0.00000     0.00  LINEAR    3.94930E-02  -126.64    0.00000E+00     0.00
    0.00    25.00    -999.99 -999.99 -999.99    0.00000     0.00            0.00000E+00     0.00    0.00000E+00     0.00
 -180.00    30.00    -999.99 -999.99 -999.99    0.00000     0.00            4.61672E-12    86.11    0.00000E+00     0.00
 -175.00    30.00     -21.47 -999.99  -21.47    0.00000     0.00  LINEAR    3.94835E-02  -132.69    0.00000E+00     0.00
 -170.00    30.00     -15.51 -999.99  -15.51    0.00000     0.00  LINEAR    7.84927E-02  -171.87    0.00000E+00     0.00
 -165.00    30.00     -12.09 -999.99  -12.09    0.00000     0.00  LINEAR    1.16369E-01   149.47    0.00000E+00     0.00
 -160.00    30.00      -9.61 -999.99   -9.61    0.00000     0.00  LINEAR    1.54673E-01   111.59    0.00000E+00     0.00
 -155.00    30.00      -7.66 -999.99   -7.66    0.00000     0.00  LINEAR    1.93576E-01    74.39    0.00000E+00     0.00
 -150.00    30.00      -6.11 -999.99   -6.11    0.00000     0.00  LINEAR    2.31567E-01    38.75    0.00000E+00     0.00
 -145.00    30.00      -4.79 -999.99   -4.79    0.00000     0.00  LINEAR    2.69563E-01     5.33    0.00000E+00     0.00
 -140.00    30.00      -3.63 -999.99   -3.63    0.00000     0.00  LINEAR    3.07904E-01   -26.08    0.00000E+00     0.00
 -135.00    30.00      -2.68 -999.99   -2.68    0.00000     0.00  LINEAR    3.43592E-01   -55.49    0.00000E+00     0.00
 -130.00    30.00      -1.93 -999.99   -1.93    0.00000     0.00  LINEAR    3.74569E-01   -82.42    0.00000E+00     0.00
 -125.00    30.00      -1.32 -999.99   -1.32    0.00000     0.00  LINEAR    4.01892E-01  -106.56    0.00000E+00     0.00
 -120.00    30.00      -0.80 -999.99   -0.80    0.00000     0.00  LINEAR    4.26881E-01  -127.92    0.00000E+00     0.00
 -115.00    30.00      -0.35 -999.99   -0.35    0.00000     0.00  LINEAR    4.49238E-01  -146.49    0.00000E+00     0.00
 -110.00    30.00       0.00 -999.99    0.00    0.00000     0.00  LINEAR    4.67964E-01  -162.09    0.00000E+00     0.00
 -105.00    30.00       0.27 -999.99    0.27    0.00000     0.00  LINEAR    4.82489E-01  -174.47    0.00000E+00     0.00
 -100.00    30.00       0.45 -999.99    0.45    0.00000     0.00  LINEAR    4.92755E-01   176.57    0.00000E+00     0.00
  -95.00    30.00       0.56 -999.99    0.56    0.00000     0.00  LINEAR    4.98871E-01   171.16    0.00000E+00     0.00
  -90.00    30.00       0.59 -999.99    0.59    0.00000     0.00  LINEAR    5.00903E-01   169.35    0.00000E+00     0.00
  -85.00    30.00       0.56 -999.99    0.56    0.00000     0.00  LINEAR    4.98871E-01   171.16    0.00000E+00     0.00
  -80.00    30.00       0.45 -999.99    0.45    0.00000     0.00  LINEAR    4.92755E-01   176.57    0.00000E+00     0.00
  -75.00    30.00       0.27 -999.99    0.27    0.00000     0.00  LINEAR    4.82489E-01  -174.47    0.00000E+00     0.00
  -70.00    30.00       0.00 -999.99    0.00    0.00000     0.00  LINEAR    4.67964E-01  -162.09    0.00000E+00     0.00
  -65.00    30.00      -0.35 -999.99   -0.35    0.00000     0.00  LINEAR    4.49238E-01  -146.49    0.00000E+00     0.00
  -60.00    30.00      -0.80 -999.99   -0.80    0.00000     0.00  LINEAR    4.26881E-01  -127.92    0.00000E+00     0.00
  -55.00    30.00      -1.32 -999.99   -1.32    0.00000     0.00  LINEAR    4.01892E-01  -106.56    0.00000E+00     0.00
  -50.00    30.00      -1.93 -999.99   -1.93    0.00000     0.00  LINEAR    3.74569E-01   -82.42    0.00000E+00     0.00
  -45.00    30.00      -2.68 -999.99   -2.68    0.00000     0.00  LINEAR    3.43592E-01   -55.49    0.00000E+00     0.00
  -40.00    30.00      -3.63 -999.99   -3.63    0.00000     0.00  LINEAR    3.07904E-01   -26.08    0.00000E+00     0.00
  -35.00    30.00      -4.79 -999.99   -4.79    0.00000     0.00  LINEAR    2.69563E-01     5.33    0.00000E+00     0.00
  -30.00    30.00      -6.11 -999.99   -6.11    0.00000     0.00  LINEAR    2.31567E-01    38.75    0.00000E+00     0.00
  -25.00    30.00      -7.66 -999.99   -7.66    0.00000     0.00  LINEAR    1.93576E-01    74.39    0.00000E+00     0.00
  -20.00    30.00      -9.61 -999.99   -9.61    0.00000     0.00  LINEAR    1.54673E-01   111.59    0.00000E+00     0.00
  -15.00    30.00     -12.09 -999.99  -12.09    0.00000     0.00  LINEAR    1.16369E-01   149.47    0.00000E+00     0.00
  -10.00    30.00     -15.51 -999.99  -15.51    0.00000     0.00  LINEAR    7.84927E-02  -171.87    0.00000E+00     0.00
   -5.00    30.00     -21.47 -999.99  -21.47    0.00000     0.00  LINEAR    3.94835E-02  -132.69    0.00000E+00     0.00
    0.00    30.00    -999.99 -999.99 -999.99    0.00000     0.00            0.00000E+00     0.00    0.00000E+00     0.00
 -180.00    35.00    -999.99 -999.99 -999.99    0.00000     0.00            4.61672E-12    86.11    0.00000E+00     0.00
 -175.00    35.00     -21.48 -999.99  -21.48    0.00000     0.00  LINEAR    3.94667E-02  -138.46    0.00000E+00     0.00
 -170.00    35.00     -15.54 -999.99  -15.54    0.00000     0.00  LINEAR    7.81448E-02   176.52    0.00000E+00     0.00
 -165.00    35.00     -12.12 -999.99  -12.12    0.00000     0.00  LINEAR    1.15848E-01   132.19    0.00000E+00     0.00
 -160.00    35.00      -9.63 -999.99   -9.63    0.00000     0.00  LINEAR    1.54439E-01    88.41    0.00000E+00     0.00
 -155.00    35.00      -7.71 -999.99   -7.71    0.00000     0.00  LINEAR    1.92498E-01    45.72    0.00000E+00     0.00
 -150.00    35.00      -6.16 -999.99   -6.16    0.00000     0.00  LINEAR    2.30321E-01     5.35    0.00000E+00     0.00
 -145.00    35.00      -4.82 -999.99   -4.82    0.00000     0.00  LINEAR    2.68717E-01   -32.98    0.00000E+00     0.00
 -140.00    35.00      -3.76 -999.99   -3.76    0.00000     0.00  LINEAR    3.03478E-01   -69.30    0.00000E+00     0.00
 -135.00    35.00      -2.94 -999.99   -2.94    0.00000     0.00  LINEAR    3.33363E-01  -102.89    0.00000E+00     0.00
 -130.00    35.00      -2.24 -999.99   -2.24    0.00000     0.00  LINEAR    3.61296E-01  -133.71    0.00000E+00     0.00
[...]
  -70.00   340.00       0.65 -999.99    0.65    0.00000     0.00  LINEAR    5.04118E-01  -167.26    0.00000E+00     0.00
  -65.00   340.00       0.21 -999.99    0.21    0.00000     0.00  LINEAR    4.79191E-01  -177.30    0.00000E+00     0.00
  -60.00   340.00      -0.34 -999.99   -0.34    0.00000     0.00  LINEAR    4.50115E-01   170.62    0.00000E+00     0.00
  -55.00   340.00      -0.98 -999.99   -0.98    0.00000     0.00  LINEAR    4.18008E-01   156.57    0.00000E+00     0.00
  -50.00   340.00      -1.72 -999.99   -1.72    0.00000     0.00  LINEAR    3.83965E-01   140.60    0.00000E+00     0.00
  -45.00   340.00      -2.56 -999.99   -2.56    0.00000     0.00  LINEAR    3.48578E-01   122.71    0.00000E+00     0.00
  -40.00   340.00      -3.52 -999.99   -3.52    0.00000     0.00  LINEAR    3.11796E-01   102.95    0.00000E+00     0.00
  -35.00   340.00      -4.66 -999.99   -4.66    0.00000     0.00  LINEAR    2.73500E-01    81.54    0.00000E+00     0.00
  -30.00   340.00      -6.01 -999.99   -6.01    0.00000     0.00  LINEAR    2.34262E-01    58.84    0.00000E+00     0.00
  -25.00   340.00      -7.59 -999.99   -7.59    0.00000     0.00  LINEAR    1.95192E-01    35.17    0.00000E+00     0.00
  -20.00   340.00      -9.50 -999.99   -9.50    0.00000     0.00  LINEAR    1.56775E-01    10.62    0.00000E+00     0.00
  -15.00   340.00     -11.94 -999.99  -11.94    0.00000     0.00  LINEAR    1.18342E-01   -14.86    0.00000E+00     0.00
  -10.00   340.00     -15.43 -999.99  -15.43    0.00000     0.00  LINEAR    7.91777E-02   -41.04    0.00000E+00     0.00
   -5.00   340.00     -21.46 -999.99  -21.46    0.00000     0.00  LINEAR    3.95444E-02   -67.48    0.00000E+00     0.00
    0.00   340.00    -999.99 -999.99 -999.99    0.00000     0.00            0.00000E+00     0.00    0.00000E+00     0.00
 -180.00   345.00    -999.99 -999.99 -999.99    0.00000     0.00            4.61672E-12    86.11    0.00000E+00     0.00
 -175.00   345.00     -21.46 -999.99  -21.46    0.00000     0.00  LINEAR    3.95330E-02   -73.92    0.00000E+00     0.00
 -170.00   345.00     -15.42 -999.99  -15.42    0.00000     0.00  LINEAR    7.92589E-02   -53.99    0.00000E+00     0.00
 -165.00   345.00     -11.89 -999.99  -11.89    0.00000     0.00  LINEAR    1.19004E-01   -34.22    0.00000E+00     0.00
 -160.00   345.00      -9.41 -999.99   -9.41    0.00000     0.00  LINEAR    1.58409E-01   -14.87    0.00000E+00     0.00
 -155.00   345.00      -7.50 -999.99   -7.50    0.00000     0.00  LINEAR    1.97357E-01     3.81    0.00000E+00     0.00
 -150.00   345.00      -5.94 -999.99   -5.94    0.00000     0.00  LINEAR    2.36118E-01    21.66    0.00000E+00     0.00
 -145.00   345.00      -4.61 -999.99   -4.61    0.00000     0.00  LINEAR    2.75018E-01    38.61    0.00000E+00     0.00
 -140.00   345.00      -3.46 -999.99   -3.46    0.00000     0.00  LINEAR    3.13991E-01    54.62    0.00000E+00     0.00
 -135.00   345.00      -2.46 -999.99   -2.46    0.00000     0.00  LINEAR    3.52456E-01    69.59    0.00000E+00     0.00
 -130.00   345.00      -1.59 -999.99   -1.59    0.00000     0.00  LINEAR    3.89538E-01    83.36    0.00000E+00     0.00
 -125.00   345.00      -0.85 -999.99   -0.85    0.00000     0.00  LINEAR    4.24375E-01    95.79    0.00000E+00     0.00
 -120.00   345.00      -0.22 -999.99   -0.22    0.00000     0.00  LINEAR    4.56259E-01   106.74    0.00000E+00     0.00
 -115.00   345.00       0.31 -999.99    0.31    0.00000     0.00  LINEAR    4.84609E-01   116.10    0.00000E+00     0.00
 -110.00   345.00       0.73 -999.99    0.73    0.00000     0.00  LINEAR    5.08882E-01   123.83    0.00000E+00     0.00
 -105.00   345.00       1.06 -999.99    1.06    0.00000     0.00  LINEAR    5.28531E-01   129.87    0.00000E+00     0.00
 -100.00   345.00       1.29 -999.99    1.29    0.00000     0.00  LINEAR    5.43027E-01   134.20    0.00000E+00     0.00
  -95.00   345.00       1.44 -999.99    1.44    0.00000     0.00  LINEAR    5.51925E-01   136.80    0.00000E+00     0.00
  -90.00   345.00       1.48 -999.99    1.48    0.00000     0.00  LINEAR    5.54926E-01   137.67    0.00000E+00     0.00
  -85.00   345.00       1.44 -999.99    1.44    0.00000     0.00  LINEAR    5.51925E-01   136.80    0.00000E+00     0.00
  -80.00   345.00       1.29 -999.99    1.29    0.00000     0.00  LINEAR    5.43027E-01   134.20    0.00000E+00     0.00
  -75.00   345.00       1.06 -999.99    1.06    0.00000     0.00  LINEAR    5.28531E-01   129.87    0.00000E+00     0.00
  -70.00   345.00       0.73 -999.99    0.73    0.00000     0.00  LINEAR    5.08882E-01   123.83    0.00000E+00     0.00
  -65.00   345.00       0.31 -999.99    0.31    0.00000     0.00  LINEAR    4.84609E-01   116.10    0.00000E+00     0.00
  -60.00   345.00      -0.22 -999.99   -0.22    0.00000     0.00  LINEAR    4.56259E-01   106.74    0.00000E+00     0.00
  -55.00   345.00      -0.85 -999.99   -0.85    0.00000     0.00  LINEAR    4.24375E-01    95.79    0.00000E+00     0.00
  -50.00   345.00      -1.59 -999.99   -1.59    0.00000     0.00  LINEAR    3.89538E-01    83.36    0.00000E+00     0.00
  -45.00   345.00      -2.46 -999.99   -2.46    0.00000     0.00  LINEAR    3.52456E-01    69.59    0.00000E+00     0.00
  -40.00   345.00      -3.46 -999.99   -3.46    0.00000     0.00  LINEAR    3.13991E-01    54.62    0.00000E+00     0.00
  -35.00   345.00      -4.61 -999.99   -4.61    0.00000     0.00  LINEAR    2.75018E-01    38.61    0.00000E+00     0.00
  -30.00   345.00      -5.94 -999.99   -5.94    0.00000     0.00  LINEAR    2.36118E-01    21.66    0.00000E+00     0.00
  -25.00   345.00      -7.50 -999.99   -7.50    0.00000     0.00  LINEAR    1.97357E-01     3.81    0.00000E+00     0.00
  -20.00   345.00      -9.41 -999.99   -9.41    0.00000     0.00  LINEAR    1.58409E-01   -14.87    0.00000E+00     0.00
  -15.00   345.00     -11.89 -999.99  -11.89    0.00000     0.00  LINEAR    1.19004E-01   -34.22    0.00000E+00     0.00
  -10.00   345.00     -15.42 -999.99  -15.42    0.00000     0.00  LINEAR    7.92589E-02   -53.99    0.00000E+00     0.00
   -5.00   345.00     -21.46 -999.99  -21.46    0.00000     0.00  LINEAR    3.95330E-02   -73.92    0.00000E+00     0.00
    0.00   345.00    -999.99 -999.99 -999.99    0.00000     0.00            0.00000E+00     0.00    0.00000E+00     0.00
 -180.00   350.00    -999.99 -999.99 -999.99    0.00000     0.00            4.61672E-12    86.11    0.00000E+00     0.00
 -175.00   350.00     -21.47 -999.99  -21.47    0.00000     0.00  LINEAR    3.95199E-02   -80.50    0.00000E+00     0.00
 -170.00   350.00     -15.42 -999.99  -15.42    0.00000     0.00  LINEAR    7.92498E-02   -67.18    0.00000E+00     0.00
 -165.00   350.00     -11.87 -999.99  -11.87    0.00000     0.00  LINEAR    1.19262E-01   -54.00    0.00000E+00     0.00
 -160.00   350.00      -9.35 -999.99   -9.35    0.00000     0.00  LINEAR    1.59477E-01   -41.06    0.00000E+00     0.00
 -155.00   350.00      -7.39 -999.99   -7.39    0.00000     0.00  LINEAR    1.99703E-01   -28.50    0.00000E+00     0.00
 -150.00   350.00      -5.81 -999.99   -5.81    0.00000     0.00  LINEAR    2.39716E-01   -16.44    0.00000E+00     0.00
 -145.00   350.00      -4.48 -999.99   -4.48    0.00000     0.00  LINEAR    2.79311E-01    -4.99    0.00000E+00     0.00
 -140.00   350.00      -3.35 -999.99   -3.35    0.00000     0.00  LINEAR    3.18290E-01     5.74    0.00000E+00     0.00
 -135.00   350.00      -2.36 -999.99   -2.36    0.00000     0.00  LINEAR    3.56400E-01    15.69    0.00000E+00     0.00
 -130.00   350.00      -1.51 -999.99   -1.51    0.00000     0.00  LINEAR    3.93266E-01    24.79    0.00000E+00     0.00
 -125.00   350.00      -0.77 -999.99   -0.77    0.00000     0.00  LINEAR    4.28350E-01    32.98    0.00000E+00     0.00
 -120.00   350.00      -0.13 -999.99   -0.13    0.00000     0.00  LINEAR    4.60974E-01    40.22    0.00000E+00     0.00
 -115.00   350.00       0.41 -999.99    0.41    0.00000     0.00  LINEAR    4.90364E-01    46.46    0.00000E+00     0.00
 -110.00   350.00       0.85 -999.99    0.85    0.00000     0.00  LINEAR    5.15730E-01    51.63    0.00000E+00     0.00
 -105.00   350.00       1.19 -999.99    1.19    0.00000     0.00  LINEAR    5.36329E-01    55.71    0.00000E+00     0.00
 -100.00   350.00       1.43 -999.99    1.43    0.00000     0.00  LINEAR    5.51529E-01    58.65    0.00000E+00     0.00
  -95.00   350.00       1.57 -999.99    1.57    0.00000     0.00  LINEAR    5.60850E-01    60.42    0.00000E+00     0.00
  -90.00   350.00       1.62 -999.99    1.62    0.00000     0.00  LINEAR    5.63990E-01    61.01    0.00000E+00     0.00
  -85.00   350.00       1.57 -999.99    1.57    0.00000     0.00  LINEAR    5.60850E-01    60.42    0.00000E+00     0.00
  -80.00   350.00       1.43 -999.99    1.43    0.00000     0.00  LINEAR    5.51529E-01    58.65    0.00000E+00     0.00
  -75.00   350.00       1.19 -999.99    1.19    0.00000     0.00  LINEAR    5.36329E-01    55.71    0.00000E+00     0.00
  -70.00   350.00       0.85 -999.99    0.85    0.00000     0.00  LINEAR    5.15730E-01    51.63    0.00000E+00     0.00
  -65.00   350.00       0.41 -999.99    0.41    0.00000     0.00  LINEAR    4.90364E-01    46.46    0.00000E+00     0.00
  -60.00   350.00      -0.13 -999.99   -0.13    0.00000     0.00  LINEAR    4.60974E-01    40.22    0.00000E+00     0.00
  -55.00   350.00      -0.77 -999.99   -0.77    0.00000     0.00  LINEAR    4.28350E-01    32.98    0.00000E+00     0.00
  -50.00   350.00      -1.51 -999.99   -1.51    0.00000     0.00  LINEAR    3.93266E-01    24.79    0.00000E+00     0.00
  -45.00   350.00      -2.36 -999.99   -2.36    0.00000     0.00  LINEAR    3.56400E-01    15.69    0.00000E+00     0.00
  -40.00   350.00      -3.35 -999.99   -3.35    0.00000     0.00  LINEAR    3.18290E-01     5.74    0.00000E+00     0.00
  -35.00   350.00      -4.48 -999.99   -4.48    0.00000     0.00  LINEAR    2.79311E-01    -4.99    0.00000E+00     0.00
  -30.00   350.00      -5.81 -999.99   -5.81    0.00000     0.00  LINEAR    2.39716E-01   -16.44    0.00000E+00     0.00
  -25.00   350.00      -7.39 -999.99   -7.39    0.00000     0.00  LINEAR    1.99703E-01   -28.50    0.00000E+00     0.00
  -20.00   350.00      -9.35 -999.99   -9.35    0.00000     0.00  LINEAR    1.59477E-01   -41.06    0.00000E+00     0.00
  -15.00   350.00     -11.87 -999.99  -11.87    0.00000     0.00  LINEAR    1.19262E-01   -54.00    0.00000E+00     0.00
  -10.00   350.00     -15.42 -999.99  -15.42    0.00000     0.00  LINEAR    7.92498E-02   -67.18    0.00000E+00     0.00
   -5.00   350.00     -21.47 -999.99  -21.47    0.00000     0.00  LINEAR    3.95199E-02   -80.50    0.00000E+00     0.00
    0.00   350.00    -999.99 -999.99 -999.99    0.00000     0.00            0.00000E+00     0.00    0.00000E+00     0.00
 -180.00   355.00    -999.99 -999.99 -999.99    0.00000     0.00            4.61672E-12    86.11    0.00000E+00     0.00
 -175.00   355.00     -21.47 -999.99  -21.47    0.00000     0.00  LINEAR    3.95081E-02   -87.17    0.00000E+00     0.00
 -170.00   355.00     -15.43 -999.99  -15.43    0.00000     0.00  LINEAR    7.91999E-02   -80.50    0.00000E+00     0.00
 -165.00   355.00     -11.88 -999.99  -11.88    0.00000     0.00  LINEAR    1.19213E-01   -73.93    0.00000E+00     0.00
 -160.00   355.00      -9.34 -999.99   -9.34    0.00000     0.00  LINEAR    1.59620E-01   -67.51    0.00000E+00     0.00
 -155.00   355.00      -7.36 -999.99   -7.36    0.00000     0.00  LINEAR    2.00408E-01   -61.27    0.00000E+00     0.00
 -150.00   355.00      -5.75 -999.99   -5.75    0.00000     0.00  LINEAR    2.41455E-01   -55.27    0.00000E+00     0.00
 -145.00   355.00      -4.38 -999.99   -4.38    0.00000     0.00  LINEAR    2.82523E-01   -49.55    0.00000E+00     0.00
 -140.00   355.00      -3.21 -999.99   -3.21    0.00000     0.00  LINEAR    3.23254E-01   -44.17    0.00000E+00     0.00
 -135.00   355.00      -2.20 -999.99   -2.20    0.00000     0.00  LINEAR    3.63177E-01   -39.16    0.00000E+00     0.00
 -130.00   355.00      -1.32 -999.99   -1.32    0.00000     0.00  LINEAR    4.01715E-01   -34.56    0.00000E+00     0.00
 -125.00   355.00      -0.57 -999.99   -0.57    0.00000     0.00  LINEAR    4.38205E-01   -30.42    0.00000E+00     0.00
 -120.00   355.00       0.08 -999.99    0.08    0.00000     0.00  LINEAR    4.71925E-01   -26.77    0.00000E+00     0.00
 -115.00   355.00       0.61 -999.99    0.61    0.00000     0.00  LINEAR    5.02125E-01   -23.63    0.00000E+00     0.00
 -110.00   355.00       1.05 -999.99    1.05    0.00000     0.00  LINEAR    5.28066E-01   -21.03    0.00000E+00     0.00
 -105.00   355.00       1.39 -999.99    1.39    0.00000     0.00  LINEAR    5.49060E-01   -18.98    0.00000E+00     0.00
 -100.00   355.00       1.63 -999.99    1.63    0.00000     0.00  LINEAR    5.64517E-01   -17.51    0.00000E+00     0.00
  -95.00   355.00       1.78 -999.99    1.78    0.00000     0.00  LINEAR    5.73984E-01   -16.63    0.00000E+00     0.00
  -90.00   355.00       1.82 -999.99    1.82    0.00000     0.00  LINEAR    5.77172E-01   -16.33    0.00000E+00     0.00
  -85.00   355.00       1.78 -999.99    1.78    0.00000     0.00  LINEAR    5.73984E-01   -16.63    0.00000E+00     0.00
  -80.00   355.00       1.63 -999.99    1.63    0.00000     0.00  LINEAR    5.64517E-01   -17.51    0.00000E+00     0.00
  -75.00   355.00       1.39 -999.99    1.39    0.00000     0.00  LINEAR    5.49060E-01   -18.98    0.00000E+00     0.00
  -70.00   355.00       1.05 -999.99    1.05    0.00000     0.00  LINEAR    5.28066E-01   -21.03    0.00000E+00     0.00
  -65.00   355.00       0.61 -999.99    0.61    0.00000     0.00  LINEAR    5.02125E-01   -23.63    0.00000E+00     0.00
  -60.00   355.00       0.08 -999.99    0.08    0.00000     0.00  LINEAR    4.71925E-01   -26.77    0.00000E+00     0.00
  -55.00   355.00      -0.57 -999.99   -0.57    0.00000     0.00  LINEAR    4.38205E-01   -30.42    0.00000E+00     0.00
  -50.00   355.00      -1.32 -999.99   -1.32    0.00000     0.00  LINEAR    4.01715E-01   -34.56    0.00000E+00     0.00
  -45.00   355.00      -2.20 -999.99   -2.20    0.00000     0.00  LINEAR    3.63177E-01   -39.16    0.00000E+00     0.00
  -40.00   355.00      -3.21 -999.99   -3.21    0.00000     0.00  LINEAR    3.23254E-01   -44.17    0.00000E+00     0.00
  -35.00   355.00      -4.38 -999.99   -4.38    0.00000     0.00  LINEAR    2.82523E-01   -49.55    0.00000E+00     0.00
  -30.00   355.00      -5.75 -999.99   -5.75    0.00000     0.00  LINEAR    2.41455E-01   -55.27    0.00000E+00     0.00
  -25.00   355.00      -7.36 -999.99   -7.36    0.00000     0.00  LINEAR    2.00408E-01   -61.27    0.00000E+00     0.00
  -20.00   355.00      -9.34 -999.99   -9.34    0.00000     0.00  LINEAR    1.59620E-01   -67.51    0.00000E+00     0.00
  -15.00   355.00     -11.88 -999.99  -11.88    0.00000     0.00  LINEAR    1.19213E-01   -73.93    0.00000E+00     0.00
  -10.00   355.00     -15.43 -999.99  -15.43    0.00000     0.00  LINEAR    7.91999E-02   -80.50    0.00000E+00     0.00
   -5.00   355.00     -21.47 -999.99  -21.47    0.00000     0.00  LINEAR    3.95081E-02   -87.17    0.00000E+00     0.00
    0.00   355.00    -999.99 -999.99 -999.99    0.00000     0.00            0.00000E+00     0.00    0.00000E+00     0.00
 -180.00   360.00    -999.99 -999.99 -999.99    0.00000     0.00            4.61672E-12    86.11    0.00000E+00     0.00
 -175.00   360.00     -21.47 -999.99  -21.47    0.00000     0.00  LINEAR    3.94997E-02   -93.89    0.00000E+00     0.00
 -170.00   360.00     -15.43 -999.99  -15.43    0.00000     0.00  LINEAR    7.91592E-02   -93.89    0.00000E+00     0.00
 -165.00   360.00     -11.88 -999.99  -11.88    0.00000     0.00  LINEAR    1.19112E-01   -93.91    0.00000E+00     0.00
 -160.00   360.00      -9.35 -999.99   -9.35    0.00000     0.00  LINEAR    1.59439E-01   -93.92    0.00000E+00     0.00
 -155.00   360.00      -7.38 -999.99   -7.38    0.00000     0.00  LINEAR    2.00145E-01   -93.94    0.00000E+00     0.00
 -150.00   360.00      -5.76 -999.99   -5.76    0.00000     0.00  LINEAR    2.41139E-01   -93.96    0.00000E+00     0.00
 -145.00   360.00      -4.39 -999.99   -4.39    0.00000     0.00  LINEAR    2.82216E-01   -93.98    0.00000E+00     0.00
 -140.00   360.00      -3.22 -999.99   -3.22    0.00000     0.00  LINEAR    3.23048E-01   -94.00    0.00000E+00     0.00
 -135.00   360.00      -2.20 -999.99   -2.20    0.00000     0.00  LINEAR    3.63181E-01   -94.03    0.00000E+00     0.00
 -130.00   360.00      -1.32 -999.99   -1.32    0.00000     0.00  LINEAR    4.02043E-01   -94.05    0.00000E+00     0.00
 -125.00   360.00      -0.55 -999.99   -0.55    0.00000     0.00  LINEAR    4.38959E-01   -94.07    0.00000E+00     0.00
 -120.00   360.00       0.10 -999.99    0.10    0.00000     0.00  LINEAR    4.73178E-01   -94.09    0.00000E+00     0.00
 -115.00   360.00       0.65 -999.99    0.65    0.00000     0.00  LINEAR    5.03910E-01   -94.11    0.00000E+00     0.00
 -110.00   360.00       1.09 -999.99    1.09    0.00000     0.00  LINEAR    5.30371E-01   -94.12    0.00000E+00     0.00
 -105.00   360.00       1.43 -999.99    1.43    0.00000     0.00  LINEAR    5.51829E-01   -94.13    0.00000E+00     0.00
 -100.00   360.00       1.68 -999.99    1.68    0.00000     0.00  LINEAR    5.67650E-01   -94.14    0.00000E+00     0.00
  -95.00   360.00       1.83 -999.99    1.83    0.00000     0.00  LINEAR    5.77349E-01   -94.15    0.00000E+00     0.00
  -90.00   360.00       1.88 -999.99    1.88    0.00000     0.00  LINEAR    5.80617E-01   -94.15    0.00000E+00     0.00
  -85.00   360.00       1.83 -999.99    1.83    0.00000     0.00  LINEAR    5.77349E-01   -94.15    0.00000E+00     0.00
  -80.00   360.00       1.68 -999.99    1.68    0.00000     0.00  LINEAR    5.67650E-01   -94.14    0.00000E+00     0.00
  -75.00   360.00       1.43 -999.99    1.43    0.00000     0.00  LINEAR    5.51829E-01   -94.13    0.00000E+00     0.00
  -70.00   360.00       1.09 -999.99    1.09    0.00000     0.00  LINEAR    5.30371E-01   -94.12    0.00000E+00     0.00
  -65.00   360.00       0.65 -999.99    0.65    0.00000     0.00  LINEAR    5.03910E-01   -94.11    0.00000E+00     0.00
  -60.00   360.00       0.10 -999.99    0.10    0.00000     0.00  LINEAR    4.73178E-01   -94.09    0.00000E+00     0.00
  -55.00   360.00      -0.55 -999.99   -0.55    0.00000     0.00  LINEAR    4.38959E-01   -94.07    0.00000E+00     0.00
  -50.00   360.00      -1.32 -999.99   -1.32    0.00000     0.00  LINEAR    4.02043E-01   -94.05    0.00000E+00     0.00
  -45.00   360.00      -2.20 -999.99   -2.20    0.00000     0.00  LINEAR    3.63181E-01   -94.03    0.00000E+00     0.00
  -40.00   360.00      -3.22 -999.99   -3.22    0.00000     0.00  LINEAR    3.23048E-01   -94.00    0.00000E+00     0.00
  -35.00   360.00      -4.39 -999.99   -4.39    0.00000     0.00  LINEAR    2.82216E-01   -93.98    0.00000E+00     0.00
  -30.00   360.00      -5.76 -999.99   -5.76    0.00000     0.00  LINEAR    2.41139E-01   -93.96    0.00000E+00     0.00
  -25.00   360.00      -7.38 -999.99   -7.38    0.00000     0.00  LINEAR    2.00145E-01   -93.94    0.00000E+00     0.00
  -20.00   360.00      -9.35 -999.99   -9.35    0.00000     0.00  LINEAR    1.59439E-01   -93.92    0.00000E+00     0.00
  -15.00   360.00     -11.88 -999.99  -11.88    0.00000     0.00  LINEAR    1.19112E-01   -93.91    0.00000E+00     0.00
  -10.00   360.00     -15.43 -999.99  -15.43    0.00000     0.00  LINEAR    7.91592E-02   -93.89    0.00000E+00     0.00
   -5.00   360.00     -21.47 -999.99  -21.47    0.00000     0.00  LINEAR    3.94997E-02   -93.89    0.00000E+00     0.00
    0.00   360.00    -999.99 -999.99 -999.99    0.00000     0.00            0.00000E+00     0.00    0.00000E+00     0.00


   AVERAGE POWER GAIN= 5.81668E-01       SOLID ANGLE USED IN AVERAGING=( 4.0000)*PI STERADIANS.








 ***** DATA CARD NO. 26   EN   0    37    73  1003 -1.80000E+02  0.00000E+00  5.00000E+00  5.00000E+00  0.00000E+00  0.00000E+00

 RUN TIME =     0.328
