1



                                 *********************************************

                                    NUMERICAL ELECTROMAGNETICS CODE (NEC-2D)

                                 *********************************************




                                     - - - - COMMENTS - - - -


                                                                                                     
                          forw:-999, 0 ; back: 0, 0                                                  
                                                                                                     




                                 - - - STRUCTURE SPECIFICATION - - -

                                     COORDINATES MUST BE INPUT IN
                                     METERS OR BE SCALED TO METERS
                                     BEFORE STRUCTURE INPUT IS ENDED


  WIRE                                                                               NO. OF    FIRST  LAST     TAG
  NO.        X1         Y1         Z1          X2         Y2         Z2      RADIUS   SEG.     SEG.   SEG.     NO.
     1    0.00000    0.00000   -0.17430     0.00000    0.00000    0.17430    0.00010      9        1     9       1
     2    0.00000    0.34860   -0.17430     0.00000    0.34860    0.17430    0.00010      9       10    18       2
     3    0.00000    0.69719   -0.17430     0.00000    0.69719    0.17430    0.00010      9       19    27       3
     4    0.00000    1.04579   -0.17430     0.00000    1.04579    0.17430    0.00010      9       28    36       4
     5    0.00000    1.39438   -0.17430     0.00000    1.39438    0.17430    0.00010      9       37    45       5
     6    0.00000    1.74298   -0.17430     0.00000    1.74298    0.17430    0.00010      9       46    54       6
     7    0.00000    2.09158   -0.17430     0.00000    2.09158    0.17430    0.00010      9       55    63       7
     8    0.00000    2.44017   -0.17430     0.00000    2.44017    0.17430    0.00010      9       64    72       8
     9    0.00000    2.78877   -0.17430     0.00000    2.78877    0.17430    0.00010      9       73    81       9
    10    0.00000    3.13736   -0.17430     0.00000    3.13736    0.17430    0.00010      9       82    90      10
    11    0.00000    3.48596   -0.17430     0.00000    3.48596    0.17430    0.00010      9       91    99      11
    12    0.00000    3.83455   -0.17430     0.00000    3.83455    0.17430    0.00010      9      100   108      12
    13    0.00000    4.18315   -0.17430     0.00000    4.18315    0.17430    0.00010      9      109   117      13
    14    0.00000    4.53175   -0.17430     0.00000    4.53175    0.17430    0.00010      9      118   126      14
    15    0.00000    4.88034   -0.17430     0.00000    4.88034    0.17430    0.00010      9      127   135      15
    16    0.00000    5.22894   -0.17430     0.00000    5.22894    0.17430    0.00010      9      136   144      16
    17    0.00000    5.57753   -0.17430     0.00000    5.57753    0.17430    0.00010      9      145   153      17
    18    0.00000    5.92613   -0.17430     0.00000    5.92613    0.17430    0.00010      9      154   162      18
    19    0.00000    6.27473   -0.17430     0.00000    6.27473    0.17430    0.00010      9      163   171      19
    20    0.00000    6.62332   -0.17430     0.00000    6.62332    0.17430    0.00010      9      172   180      20

   TOTAL SEGMENTS USED=  180     NO. SEG. IN A SYMMETRIC CELL=  180     SYMMETRY FLAG=  0


         - MULTIPLE WIRE JUNCTIONS -
 JUNCTION    SEGMENTS  (- FOR END 1, + FOR END 2)
  NONE




                                 - - - - SEGMENTATION DATA - - - -

                                        COORDINATES IN METERS

                         I+ AND I- INDICATE THE SEGMENTS BEFORE AND AFTER I


  SEG.   COORDINATES OF SEG. CENTER     SEG.     ORIENTATION ANGLES    WIRE    CONNECTION DATA   TAG
  NO.       X         Y         Z       LENGTH     ALPHA     BETA      RADIUS    I-   I    I+    NO.
     1   0.00000   0.00000  -0.15493   0.03873   90.00000   0.00000   0.00010     0    1    2      1
     2   0.00000   0.00000  -0.11620   0.03873   90.00000   0.00000   0.00010     1    2    3      1
     3   0.00000   0.00000  -0.07747   0.03873   90.00000   0.00000   0.00010     2    3    4      1
     4   0.00000   0.00000  -0.03873   0.03873   90.00000   0.00000   0.00010     3    4    5      1
     5   0.00000   0.00000   0.00000   0.03873   90.00000   0.00000   0.00010     4    5    6      1
     6   0.00000   0.00000   0.03873   0.03873   90.00000   0.00000   0.00010     5    6    7      1
     7   0.00000   0.00000   0.07747   0.03873   90.00000   0.00000   0.00010     6    7    8      1
     8   0.00000   0.00000   0.11620   0.03873   90.00000   0.00000   0.00010     7    8    9      1
     9   0.00000   0.00000   0.15493   0.03873   90.00000   0.00000   0.00010     8    9    0      1
    10   0.00000   0.34860  -0.15493   0.03873   90.00000   0.00000   0.00010     0   10   11      2
    11   0.00000   0.34860  -0.11620   0.03873   90.00000   0.00000   0.00010    10   11   12      2
    12   0.00000   0.34860  -0.07747   0.03873   90.00000   0.00000   0.00010    11   12   13      2
    13   0.00000   0.34860  -0.03873   0.03873   90.00000   0.00000   0.00010    12   13   14      2
    14   0.00000   0.34860   0.00000   0.03873   90.00000   0.00000   0.00010    13   14   15      2
    15   0.00000   0.34860   0.03873   0.03873   90.00000   0.00000   0.00010    14   15   16      2
    16   0.00000   0.34860   0.07747   0.03873   90.00000   0.00000   0.00010    15   16   17      2
    17   0.00000   0.34860   0.11620   0.03873   90.00000   0.00000   0.00010    16   17   18      2
    18   0.00000   0.34860   0.15493   0.03873   90.00000   0.00000   0.00010    17   18    0      2
    19   0.00000   0.69719  -0.15493   0.03873   90.00000   0.00000   0.00010     0   19   20      3
    20   0.00000   0.69719  -0.11620   0.03873   90.00000   0.00000   0.00010    19   20   21      3
    21   0.00000   0.69719  -0.07747   0.03873   90.00000   0.00000   0.00010    20   21   22      3
    22   0.00000   0.69719  -0.03873   0.03873   90.00000   0.00000   0.00010    21   22   23      3
    23   0.00000   0.69719   0.00000   0.03873   90.00000   0.00000   0.00010    22   23   24      3
    24   0.00000   0.69719   0.03873   0.03873   90.00000   0.00000   0.00010    23   24   25      3
    25   0.00000   0.69719   0.07747   0.03873   90.00000   0.00000   0.00010    24   25   26      3
    26   0.00000   0.69719   0.11620   0.03873   90.00000   0.00000   0.00010    25   26   27      3
    27   0.00000   0.69719   0.15493   0.03873   90.00000   0.00000   0.00010    26   27    0      3
    28   0.00000   1.04579  -0.15493   0.03873   90.00000   0.00000   0.00010     0   28   29      4
    29   0.00000   1.04579  -0.11620   0.03873   90.00000   0.00000   0.00010    28   29   30      4
    30   0.00000   1.04579  -0.07747   0.03873   90.00000   0.00000   0.00010    29   30   31      4
    31   0.00000   1.04579  -0.03873   0.03873   90.00000   0.00000   0.00010    30   31   32      4
    32   0.00000   1.04579   0.00000   0.03873   90.00000   0.00000   0.00010    31   32   33      4
    33   0.00000   1.04579   0.03873   0.03873   90.00000   0.00000   0.00010    32   33   34      4
    34   0.00000   1.04579   0.07747   0.03873   90.00000   0.00000   0.00010    33   34   35      4
    35   0.00000   1.04579   0.11620   0.03873   90.00000   0.00000   0.00010    34   35   36      4
    36   0.00000   1.04579   0.15493   0.03873   90.00000   0.00000   0.00010    35   36    0      4
    37   0.00000   1.39438  -0.15493   0.03873   90.00000   0.00000   0.00010     0   37   38      5
    38   0.00000   1.39438  -0.11620   0.03873   90.00000   0.00000   0.00010    37   38   39      5
    39   0.00000   1.39438  -0.07747   0.03873   90.00000   0.00000   0.00010    38   39   40      5
    40   0.00000   1.39438  -0.03873   0.03873   90.00000   0.00000   0.00010    39   40   41      5
    41   0.00000   1.39438   0.00000   0.03873   90.00000   0.00000   0.00010    40   41   42      5
    42   0.00000   1.39438   0.03873   0.03873   90.00000   0.00000   0.00010    41   42   43      5
    43   0.00000   1.39438   0.07747   0.03873   90.00000   0.00000   0.00010    42   43   44      5
    44   0.00000   1.39438   0.11620   0.03873   90.00000   0.00000   0.00010    43   44   45      5
    45   0.00000   1.39438   0.15493   0.03873   90.00000   0.00000   0.00010    44   45    0      5
    46   0.00000   1.74298  -0.15493   0.03873   90.00000   0.00000   0.00010     0   46   47      6
    47   0.00000   1.74298  -0.11620   0.03873   90.00000   0.00000   0.00010    46   47   48      6
    48   0.00000   1.74298  -0.07747   0.03873   90.00000   0.00000   0.00010    47   48   49      6
    49   0.00000   1.74298  -0.03873   0.03873   90.00000   0.00000   0.00010    48   49   50      6
    50   0.00000   1.74298   0.00000   0.03873   90.00000   0.00000   0.00010    49   50   51      6
    51   0.00000   1.74298   0.03873   0.03873   90.00000   0.00000   0.00010    50   51   52      6
    52   0.00000   1.74298   0.07747   0.03873   90.00000   0.00000   0.00010    51   52   53      6
    53   0.00000   1.74298   0.11620   0.03873   90.00000   0.00000   0.00010    52   53   54      6
    54   0.00000   1.74298   0.15493   0.03873   90.00000   0.00000   0.00010    53   54    0      6
    55   0.00000   2.09158  -0.15493   0.03873   90.00000   0.00000   0.00010     0   55   56      7
    56   0.00000   2.09158  -0.11620   0.03873   90.00000   0.00000   0.00010    55   56   57      7
    57   0.00000   2.09158  -0.07747   0.03873   90.00000   0.00000   0.00010    56   57   58      7
    58   0.00000   2.09158  -0.03873   0.03873   90.00000   0.00000   0.00010    57   58   59      7
    59   0.00000   2.09158   0.00000   0.03873   90.00000   0.00000   0.00010    58   59   60      7
    60   0.00000   2.09158   0.03873   0.03873   90.00000   0.00000   0.00010    59   60   61      7
    61   0.00000   2.09158   0.07747   0.03873   90.00000   0.00000   0.00010    60   61   62      7
    62   0.00000   2.09158   0.11620   0.03873   90.00000   0.00000   0.00010    61   62   63      7
    63   0.00000   2.09158   0.15493   0.03873   90.00000   0.00000   0.00010    62   63    0      7
    64   0.00000   2.44017  -0.15493   0.03873   90.00000   0.00000   0.00010     0   64   65      8
    65   0.00000   2.44017  -0.11620   0.03873   90.00000   0.00000   0.00010    64   65   66      8
    66   0.00000   2.44017  -0.07747   0.03873   90.00000   0.00000   0.00010    65   66   67      8
    67   0.00000   2.44017  -0.03873   0.03873   90.00000   0.00000   0.00010    66   67   68      8
    68   0.00000   2.44017   0.00000   0.03873   90.00000   0.00000   0.00010    67   68   69      8
    69   0.00000   2.44017   0.03873   0.03873   90.00000   0.00000   0.00010    68   69   70      8
    70   0.00000   2.44017   0.07747   0.03873   90.00000   0.00000   0.00010    69   70   71      8
    71   0.00000   2.44017   0.11620   0.03873   90.00000   0.00000   0.00010    70   71   72      8
    72   0.00000   2.44017   0.15493   0.03873   90.00000   0.00000   0.00010    71   72    0      8
    73   0.00000   2.78877  -0.15493   0.03873   90.00000   0.00000   0.00010     0   73   74      9
    74   0.00000   2.78877  -0.11620   0.03873   90.00000   0.00000   0.00010    73   74   75      9
    75   0.00000   2.78877  -0.07747   0.03873   90.00000   0.00000   0.00010    74   75   76      9
    76   0.00000   2.78877  -0.03873   0.03873   90.00000   0.00000   0.00010    75   76   77      9
    77   0.00000   2.78877   0.00000   0.03873   90.00000   0.00000   0.00010    76   77   78      9
    78   0.00000   2.78877   0.03873   0.03873   90.00000   0.00000   0.00010    77   78   79      9
    79   0.00000   2.78877   0.07747   0.03873   90.00000   0.00000   0.00010    78   79   80      9
    80   0.00000   2.78877   0.11620   0.03873   90.00000   0.00000   0.00010    79   80   81      9
    81   0.00000   2.78877   0.15493   0.03873   90.00000   0.00000   0.00010    80   81    0      9
    82   0.00000   3.13736  -0.15493   0.03873   90.00000   0.00000   0.00010     0   82   83     10
    83   0.00000   3.13736  -0.11620   0.03873   90.00000   0.00000   0.00010    82   83   84     10
    84   0.00000   3.13736  -0.07747   0.03873   90.00000   0.00000   0.00010    83   84   85     10
    85   0.00000   3.13736  -0.03873   0.03873   90.00000   0.00000   0.00010    84   85   86     10
    86   0.00000   3.13736   0.00000   0.03873   90.00000   0.00000   0.00010    85   86   87     10
    87   0.00000   3.13736   0.03873   0.03873   90.00000   0.00000   0.00010    86   87   88     10
    88   0.00000   3.13736   0.07747   0.03873   90.00000   0.00000   0.00010    87   88   89     10
    89   0.00000   3.13736   0.11620   0.03873   90.00000   0.00000   0.00010    88   89   90     10
    90   0.00000   3.13736   0.15493   0.03873   90.00000   0.00000   0.00010    89   90    0     10
    91   0.00000   3.48596  -0.15493   0.03873   90.00000   0.00000   0.00010     0   91   92     11
    92   0.00000   3.48596  -0.11620   0.03873   90.00000   0.00000   0.00010    91   92   93     11
    93   0.00000   3.48596  -0.07747   0.03873   90.00000   0.00000   0.00010    92   93   94     11
    94   0.00000   3.48596  -0.03873   0.03873   90.00000   0.00000   0.00010    93   94   95     11
    95   0.00000   3.48596   0.00000   0.03873   90.00000   0.00000   0.00010    94   95   96     11
    96   0.00000   3.48596   0.03873   0.03873   90.00000   0.00000   0.00010    95   96   97     11
    97   0.00000   3.48596   0.07747   0.03873   90.00000   0.00000   0.00010    96   97   98     11
    98   0.00000   3.48596   0.11620   0.03873   90.00000   0.00000   0.00010    97   98   99     11
    99   0.00000   3.48596   0.15493   0.03873   90.00000   0.00000   0.00010    98   99    0     11
   100   0.00000   3.83455  -0.15493   0.03873   90.00000   0.00000   0.00010     0  100  101     12
   101   0.00000   3.83455  -0.11620   0.03873   90.00000   0.00000   0.00010   100  101  102     12
   102   0.00000   3.83455  -0.07747   0.03873   90.00000   0.00000   0.00010   101  102  103     12
   103   0.00000   3.83455  -0.03873   0.03873   90.00000   0.00000   0.00010   102  103  104     12
   104   0.00000   3.83455   0.00000   0.03873   90.00000   0.00000   0.00010   103  104  105     12
   105   0.00000   3.83455   0.03873   0.03873   90.00000   0.00000   0.00010   104  105  106     12
   106   0.00000   3.83455   0.07747   0.03873   90.00000   0.00000   0.00010   105  106  107     12
   107   0.00000   3.83455   0.11620   0.03873   90.00000   0.00000   0.00010   106  107  108     12
   108   0.00000   3.83455   0.15493   0.03873   90.00000   0.00000   0.00010   107  108    0     12
   109   0.00000   4.18315  -0.15493   0.03873   90.00000   0.00000   0.00010     0  109  110     13
   110   0.00000   4.18315  -0.11620   0.03873   90.00000   0.00000   0.00010   109  110  111     13
   111   0.00000   4.18315  -0.07747   0.03873   90.00000   0.00000   0.00010   110  111  112     13
   112   0.00000   4.18315  -0.03873   0.03873   90.00000   0.00000   0.00010   111  112  113     13
   113   0.00000   4.18315   0.00000   0.03873   90.00000   0.00000   0.00010   112  113  114     13
   114   0.00000   4.18315   0.03873   0.03873   90.00000   0.00000   0.00010   113  114  115     13
   115   0.00000   4.18315   0.07747   0.03873   90.00000   0.00000   0.00010   114  115  116     13
   116   0.00000   4.18315   0.11620   0.03873   90.00000   0.00000   0.00010   115  116  117     13
   117   0.00000   4.18315   0.15493   0.03873   90.00000   0.00000   0.00010   116  117    0     13
   118   0.00000   4.53175  -0.15493   0.03873   90.00000   0.00000   0.00010     0  118  119     14
   119   0.00000   4.53175  -0.11620   0.03873   90.00000   0.00000   0.00010   118  119  120     14
   120   0.00000   4.53175  -0.07747   0.03873   90.00000   0.00000   0.00010   119  120  121     14
   121   0.00000   4.53175  -0.03873   0.03873   90.00000   0.00000   0.00010   120  121  122     14
   122   0.00000   4.53175   0.00000   0.03873   90.00000   0.00000   0.00010   121  122  123     14
   123   0.00000   4.53175   0.03873   0.03873   90.00000   0.00000   0.00010   122  123  124     14
   124   0.00000   4.53175   0.07747   0.03873   90.00000   0.00000   0.00010   123  124  125     14
   125   0.00000   4.53175   0.11620   0.03873   90.00000   0.00000   0.00010   124  125  126     14
   126   0.00000   4.53175   0.15493   0.03873   90.00000   0.00000   0.00010   125  126    0     14
   127   0.00000   4.88034  -0.15493   0.03873   90.00000   0.00000   0.00010     0  127  128     15
   128   0.00000   4.88034  -0.11620   0.03873   90.00000   0.00000   0.00010   127  128  129     15
   129   0.00000   4.88034  -0.07747   0.03873   90.00000   0.00000   0.00010   128  129  130     15
   130   0.00000   4.88034  -0.03873   0.03873   90.00000   0.00000   0.00010   129  130  131     15
   131   0.00000   4.88034   0.00000   0.03873   90.00000   0.00000   0.00010   130  131  132     15
   132   0.00000   4.88034   0.03873   0.03873   90.00000   0.00000   0.00010   131  132  133     15
   133   0.00000   4.88034   0.07747   0.03873   90.00000   0.00000   0.00010   132  133  134     15
   134   0.00000   4.88034   0.11620   0.03873   90.00000   0.00000   0.00010   133  134  135     15
   135   0.00000   4.88034   0.15493   0.03873   90.00000   0.00000   0.00010   134  135    0     15
   136   0.00000   5.22894  -0.15493   0.03873   90.00000   0.00000   0.00010     0  136  137     16
   137   0.00000   5.22894  -0.11620   0.03873   90.00000   0.00000   0.00010   136  137  138     16
   138   0.00000   5.22894  -0.07747   0.03873   90.00000   0.00000   0.00010   137  138  139     16
   139   0.00000   5.22894  -0.03873   0.03873   90.00000   0.00000   0.00010   138  139  140     16
   140   0.00000   5.22894   0.00000   0.03873   90.00000   0.00000   0.00010   139  140  141     16
   141   0.00000   5.22894   0.03873   0.03873   90.00000   0.00000   0.00010   140  141  142     16
   142   0.00000   5.22894   0.07747   0.03873   90.00000   0.00000   0.00010   141  142  143     16
   143   0.00000   5.22894   0.11620   0.03873   90.00000   0.00000   0.00010   142  143  144     16
   144   0.00000   5.22894   0.15493   0.03873   90.00000   0.00000   0.00010   143  144    0     16
   145   0.00000   5.57753  -0.15493   0.03873   90.00000   0.00000   0.00010     0  145  146     17
   146   0.00000   5.57753  -0.11620   0.03873   90.00000   0.00000   0.00010   145  146  147     17
   147   0.00000   5.57753  -0.07747   0.03873   90.00000   0.00000   0.00010   146  147  148     17
   148   0.00000   5.57753  -0.03873   0.03873   90.00000   0.00000   0.00010   147  148  149     17
   149   0.00000   5.57753   0.00000   0.03873   90.00000   0.00000   0.00010   148  149  150     17
   150   0.00000   5.57753   0.03873   0.03873   90.00000   0.00000   0.00010   149  150  151     17
   151   0.00000   5.57753   0.07747   0.03873   90.00000   0.00000   0.00010   150  151  152     17
   152   0.00000   5.57753   0.11620   0.03873   90.00000   0.00000   0.00010   151  152  153     17
   153   0.00000   5.57753   0.15493   0.03873   90.00000   0.00000   0.00010   152  153    0     17
   154   0.00000   5.92613  -0.15493   0.03873   90.00000   0.00000   0.00010     0  154  155     18
   155   0.00000   5.92613  -0.11620   0.03873   90.00000   0.00000   0.00010   154  155  156     18
   156   0.00000   5.92613  -0.07747   0.03873   90.00000   0.00000   0.00010   155  156  157     18
   157   0.00000   5.92613  -0.03873   0.03873   90.00000   0.00000   0.00010   156  157  158     18
   158   0.00000   5.92613   0.00000   0.03873   90.00000   0.00000   0.00010   157  158  159     18
   159   0.00000   5.92613   0.03873   0.03873   90.00000   0.00000   0.00010   158  159  160     18
   160   0.00000   5.92613   0.07747   0.03873   90.00000   0.00000   0.00010   159  160  161     18
   161   0.00000   5.92613   0.11620   0.03873   90.00000   0.00000   0.00010   160  161  162     18
   162   0.00000   5.92613   0.15493   0.03873   90.00000   0.00000   0.00010   161  162    0     18
   163   0.00000   6.27473  -0.15493   0.03873   90.00000   0.00000   0.00010     0  163  164     19
   164   0.00000   6.27473  -0.11620   0.03873   90.00000   0.00000   0.00010   163  164  165     19
   165   0.00000   6.27473  -0.07747   0.03873   90.00000   0.00000   0.00010   164  165  166     19
   166   0.00000   6.27473  -0.03873   0.03873   90.00000   0.00000   0.00010   165  166  167     19
   167   0.00000   6.27473   0.00000   0.03873   90.00000   0.00000   0.00010   166  167  168     19
   168   0.00000   6.27473   0.03873   0.03873   90.00000   0.00000   0.00010   167  168  169     19
   169   0.00000   6.27473   0.07747   0.03873   90.00000   0.00000   0.00010   168  169  170     19
   170   0.00000   6.27473   0.11620   0.03873   90.00000   0.00000   0.00010   169  170  171     19
   171   0.00000   6.27473   0.15493   0.03873   90.00000   0.00000   0.00010   170  171    0     19
   172   0.00000   6.62332  -0.15493   0.03873   90.00000   0.00000   0.00010     0  172  173     20
   173   0.00000   6.62332  -0.11620   0.03873   90.00000   0.00000   0.00010   172  173  174     20
   174   0.00000   6.62332  -0.07747   0.03873   90.00000   0.00000   0.00010   173  174  175     20
   175   0.00000   6.62332  -0.03873   0.03873   90.00000   0.00000   0.00010   174  175  176     20
   176   0.00000   6.62332   0.00000   0.03873   90.00000   0.00000   0.00010   175  176  177     20
   177   0.00000   6.62332   0.03873   0.03873   90.00000   0.00000   0.00010   176  177  178     20
   178   0.00000   6.62332   0.07747   0.03873   90.00000   0.00000   0.00010   177  178  179     20
   179   0.00000   6.62332   0.11620   0.03873   90.00000   0.00000   0.00010   178  179  180     20
   180   0.00000   6.62332   0.15493   0.03873   90.00000   0.00000   0.00010   179  180    0     20






 ***** DATA CARD NO.  1   LD   4     1     5     5  5.00000E+01  0.00000E+00  0.00000E+00  0.00000E+00  0.00000E+00  0.00000E+00
 ***** DATA CARD NO.  2   LD   4     2     5     5  5.00000E+01  0.00000E+00  0.00000E+00  0.00000E+00  0.00000E+00  0.00000E+00
 ***** DATA CARD NO.  3   LD   4     3     5     5  5.00000E+01  0.00000E+00  0.00000E+00  0.00000E+00  0.00000E+00  0.00000E+00
 ***** DATA CARD NO.  4   LD   4     4     5     5  5.00000E+01  0.00000E+00  0.00000E+00  0.00000E+00  0.00000E+00  0.00000E+00
 ***** DATA CARD NO.  5   LD   4     5     5     5  5.00000E+01  0.00000E+00  0.00000E+00  0.00000E+00  0.00000E+00  0.00000E+00
 ***** DATA CARD NO.  6   LD   4     6     5     5  5.00000E+01  0.00000E+00  0.00000E+00  0.00000E+00  0.00000E+00  0.00000E+00
 ***** DATA CARD NO.  7   LD   4     7     5     5  5.00000E+01  0.00000E+00  0.00000E+00  0.00000E+00  0.00000E+00  0.00000E+00
 ***** DATA CARD NO.  8   LD   4     8     5     5  5.00000E+01  0.00000E+00  0.00000E+00  0.00000E+00  0.00000E+00  0.00000E+00
 ***** DATA CARD NO.  9   LD   4     9     5     5  5.00000E+01  0.00000E+00  0.00000E+00  0.00000E+00  0.00000E+00  0.00000E+00
 ***** DATA CARD NO. 10   LD   4    10     5     5  5.00000E+01  0.00000E+00  0.00000E+00  0.00000E+00  0.00000E+00  0.00000E+00
 ***** DATA CARD NO. 11   LD   4    11     5     5  5.00000E+01  0.00000E+00  0.00000E+00  0.00000E+00  0.00000E+00  0.00000E+00
 ***** DATA CARD NO. 12   LD   4    12     5     5  5.00000E+01  0.00000E+00  0.00000E+00  0.00000E+00  0.00000E+00  0.00000E+00
 ***** DATA CARD NO. 13   LD   4    13     5     5  5.00000E+01  0.00000E+00  0.00000E+00  0.00000E+00  0.00000E+00  0.00000E+00
 ***** DATA CARD NO. 14   LD   4    14     5     5  5.00000E+01  0.00000E+00  0.00000E+00  0.00000E+00  0.00000E+00  0.00000E+00
 ***** DATA CARD NO. 15   LD   4    15     5     5  5.00000E+01  0.00000E+00  0.00000E+00  0.00000E+00  0.00000E+00  0.00000E+00
 ***** DATA CARD NO. 16   LD   4    16     5     5  5.00000E+01  0.00000E+00  0.00000E+00  0.00000E+00  0.00000E+00  0.00000E+00
 ***** DATA CARD NO. 17   LD   4    17     5     5  5.00000E+01  0.00000E+00  0.00000E+00  0.00000E+00  0.00000E+00  0.00000E+00
 ***** DATA CARD NO. 18   LD   4    18     5     5  5.00000E+01  0.00000E+00  0.00000E+00  0.00000E+00  0.00000E+00  0.00000E+00
 ***** DATA CARD NO. 19   LD   4    19     5     5  5.00000E+01  0.00000E+00  0.00000E+00  0.00000E+00  0.00000E+00  0.00000E+00
 ***** DATA CARD NO. 20   LD   4    20     5     5  5.00000E+01  0.00000E+00  0.00000E+00  0.00000E+00  0.00000E+00  0.00000E+00
 ***** DATA CARD NO. 21   GN  -1     0     0     0  0.00000E+00  0.00000E+00  0.00000E+00  0.00000E+00  0.00000E+00  0.00000E+00
 ***** DATA CARD NO. 22   EK   0     0     0     0  0.00000E+00  0.00000E+00  0.00000E+00  0.00000E+00  0.00000E+00  0.00000E+00
 ***** DATA CARD NO. 23   EX   0     7     5     0  1.00000E+00  0.00000E+00  0.00000E+00  0.00000E+00  0.00000E+00  0.00000E+00
 ***** DATA CARD NO. 24   FR   0     0     0     0  4.30000E+02  0.00000E+00  0.00000E+00  0.00000E+00  0.00000E+00  0.00000E+00
 ***** DATA CARD NO. 25   RP   0    37    73  1003 -1.80000E+02  0.00000E+00  5.00000E+00  5.00000E+00  0.00000E+00  0.00000E+00




                                 - - - - - - FREQUENCY - - - - - -

                                    FREQUENCY= 4.3000E+02 MHZ
                                    WAVELENGTH= 6.9721E-01 METERS




                    APPROXIMATE INTEGRATION EMPLOYED FOR SEGMENTS MORE THAN   1.000 WAVELENGTHS APART

                    THE EXTENDED THIN WIRE KERNEL WILL BE USED



                               - - - STRUCTURE IMPEDANCE LOADING - - -


       LOCATION          RESISTANCE   INDUCTANCE  CAPACITANCE       IMPEDANCE (OHMS)     CONDUCTIVITY    TYPE
    ITAG FROM THRU          OHMS        HENRYS       FARADS        REAL      IMAGINARY    MHOS/METER

       1    5    5                                             5.0000E+01                             FIXED IMPEDANCE 

       2    5    5                                             5.0000E+01                             FIXED IMPEDANCE 

       3    5    5                                             5.0000E+01                             FIXED IMPEDANCE 

       4    5    5                                             5.0000E+01                             FIXED IMPEDANCE 

       5    5    5                                             5.0000E+01                             FIXED IMPEDANCE 

       6    5    5                                             5.0000E+01                             FIXED IMPEDANCE 

       7    5    5                                             5.0000E+01                             FIXED IMPEDANCE 

       8    5    5                                             5.0000E+01                             FIXED IMPEDANCE 

       9    5    5                                             5.0000E+01                             FIXED IMPEDANCE 

      10    5    5                                             5.0000E+01                             FIXED IMPEDANCE 

      11    5    5                                             5.0000E+01                             FIXED IMPEDANCE 

      12    5    5                                             5.0000E+01                             FIXED IMPEDANCE 

      13    5    5                                             5.0000E+01                             FIXED IMPEDANCE 

      14    5    5                                             5.0000E+01                             FIXED IMPEDANCE 

      15    5    5                                             5.0000E+01                             FIXED IMPEDANCE 

      16    5    5                                             5.0000E+01                             FIXED IMPEDANCE 

      17    5    5                                             5.0000E+01                             FIXED IMPEDANCE 

      18    5    5                                             5.0000E+01                             FIXED IMPEDANCE 

      19    5    5                                             5.0000E+01                             FIXED IMPEDANCE 

      20    5    5                                             5.0000E+01                             FIXED IMPEDANCE 



                                  - - - ANTENNA ENVIRONMENT - - -

                                            FREE SPACE



                                - - - MATRIX TIMING - - -

                        FILL=    0.031 SEC.,  FACTOR=    0.000 SEC.



                                          - - - ANTENNA INPUT PARAMETERS - - -

   TAG   SEG.    VOLTAGE (VOLTS)         CURRENT (AMPS)         IMPEDANCE (OHMS)        ADMITTANCE (MHOS)      POWER
   NO.   NO.    REAL        IMAG.       REAL        IMAG.       REAL        IMAG.       REAL        IMAG.     (WATTS)
     7    59 1.00000E+00 0.00000E+00 7.30289E-03-1.43876E-03 1.31816E+02 2.59694E+01 7.30289E-03-1.43876E-03 3.65144E-03



                             - - - CURRENTS AND LOCATION - - -

                                 DISTANCES IN WAVELENGTHS


  SEG.  TAG    COORD. OF SEG. CENTER     SEG.            - - - CURRENT (AMPS) - - -
  NO.   NO.     X        Y        Z      LENGTH     REAL        IMAG.       MAG.        PHASE
     1    1   0.0000   0.0000  -0.2222  0.05555  -2.5656E-05  1.8335E-07  2.5657E-05  179.591
     2    1   0.0000   0.0000  -0.1667  0.05555  -6.9158E-05  1.4430E-06  6.9173E-05  178.805
     3    1   0.0000   0.0000  -0.1111  0.05555  -1.0301E-04  3.6247E-06  1.0307E-04  177.985
     4    1   0.0000   0.0000  -0.0556  0.05555  -1.2473E-04  6.4651E-06  1.2489E-04  177.033
     5    1   0.0000   0.0000   0.0000  0.05555  -1.3213E-04  8.9622E-06  1.3243E-04  176.120
     6    1   0.0000   0.0000   0.0556  0.05555  -1.2473E-04  6.4651E-06  1.2489E-04  177.033
     7    1   0.0000   0.0000   0.1111  0.05555  -1.0301E-04  3.6247E-06  1.0307E-04  177.985
     8    1   0.0000   0.0000   0.1667  0.05555  -6.9158E-05  1.4430E-06  6.9173E-05  178.805
     9    1   0.0000   0.0000   0.2222  0.05555  -2.5656E-05  1.8335E-07  2.5657E-05  179.591
    10    2   0.0000   0.5000  -0.2222  0.05555   2.8582E-05 -2.8434E-06  2.8723E-05   -5.681
    11    2   0.0000   0.5000  -0.1667  0.05555   7.7015E-05 -8.7273E-06  7.7508E-05   -6.465
    12    2   0.0000   0.5000  -0.1111  0.05555   1.1463E-04 -1.4650E-05  1.1556E-04   -7.283
    13    2   0.0000   0.5000  -0.0556  0.05555   1.3863E-04 -2.0058E-05  1.4008E-04   -8.233
    14    2   0.0000   0.5000   0.0000  0.05555   1.4666E-04 -2.3610E-05  1.4855E-04   -9.145
    15    2   0.0000   0.5000   0.0556  0.05555   1.3863E-04 -2.0058E-05  1.4008E-04   -8.233
    16    2   0.0000   0.5000   0.1111  0.05555   1.1463E-04 -1.4650E-05  1.1556E-04   -7.283
    17    2   0.0000   0.5000   0.1667  0.05555   7.7015E-05 -8.7273E-06  7.7508E-05   -6.465
    18    2   0.0000   0.5000   0.2222  0.05555   2.8582E-05 -2.8434E-06  2.8723E-05   -5.681
    19    3   0.0000   1.0000  -0.2222  0.05555  -3.7433E-05  2.5551E-06  3.7520E-05  176.095
    20    3   0.0000   1.0000  -0.1667  0.05555  -1.0087E-04  8.2828E-06  1.0121E-04  175.306
    21    3   0.0000   1.0000  -0.1111  0.05555  -1.5017E-04  1.4501E-05  1.5087E-04  174.484
    22    3   0.0000   1.0000  -0.0556  0.05555  -1.8168E-04  2.0597E-05  1.8284E-04  173.532
    23    3   0.0000   1.0000   0.0000  0.05555  -1.9229E-04  2.4910E-05  1.9389E-04  172.619
    24    3   0.0000   1.0000   0.0556  0.05555  -1.8168E-04  2.0597E-05  1.8284E-04  173.532
    25    3   0.0000   1.0000   0.1111  0.05555  -1.5017E-04  1.4501E-05  1.5087E-04  174.484
    26    3   0.0000   1.0000   0.1667  0.05555  -1.0087E-04  8.2827E-06  1.0121E-04  175.306
    27    3   0.0000   1.0000   0.2222  0.05555  -3.7433E-05  2.5551E-06  3.7520E-05  176.095
    28    4   0.0000   1.5000  -0.2222  0.05555   5.5673E-05  1.0927E-06  5.5684E-05    1.124
    29    4   0.0000   1.5000  -0.1667  0.05555   1.5008E-04  8.4541E-07  1.5009E-04    0.323
    30    4   0.0000   1.5000  -0.1111  0.05555   2.2360E-04 -1.9828E-06  2.2361E-04   -0.508
    31    4   0.0000   1.5000  -0.0556  0.05555   2.7084E-04 -6.9326E-06  2.7092E-04   -1.466
    32    4   0.0000   1.5000   0.0000  0.05555   2.8702E-04 -1.1937E-05  2.8727E-04   -2.381
    33    4   0.0000   1.5000   0.0556  0.05555   2.7084E-04 -6.9326E-06  2.7092E-04   -1.466
    34    4   0.0000   1.5000   0.1111  0.05555   2.2360E-04 -1.9828E-06  2.2361E-04   -0.508
    35    4   0.0000   1.5000   0.1667  0.05555   1.5008E-04  8.4541E-07  1.5009E-04    0.323
    36    4   0.0000   1.5000   0.2222  0.05555   5.5673E-05  1.0927E-06  5.5684E-05    1.124
    37    5   0.0000   2.0000  -0.2222  0.05555  -9.9099E-05 -1.7633E-05  1.0066E-04 -169.911
    38    5   0.0000   2.0000  -0.1667  0.05555  -2.6730E-04 -4.3712E-05  2.7085E-04 -170.712
    39    5   0.0000   2.0000  -0.1111  0.05555  -3.9871E-04 -5.9257E-05  4.0308E-04 -171.546
    40    5   0.0000   2.0000  -0.0556  0.05555  -4.8391E-04 -6.3639E-05  4.8808E-04 -172.508
    41    5   0.0000   2.0000   0.0000  0.05555  -5.1402E-04 -5.9250E-05  5.1743E-04 -173.425
    42    5   0.0000   2.0000   0.0556  0.05555  -4.8391E-04 -6.3639E-05  4.8808E-04 -172.508
    43    5   0.0000   2.0000   0.1111  0.05555  -3.9871E-04 -5.9257E-05  4.0308E-04 -171.546
    44    5   0.0000   2.0000   0.1667  0.05555  -2.6730E-04 -4.3712E-05  2.7085E-04 -170.712
    45    5   0.0000   2.0000   0.2222  0.05555  -9.9099E-05 -1.7633E-05  1.0066E-04 -169.911
    46    6   0.0000   2.4999  -0.2222  0.05555   2.6519E-04  1.2323E-04  2.9242E-04   24.923
    47    6   0.0000   2.4999  -0.1667  0.05555   7.1472E-04  3.2363E-04  7.8458E-04   24.361
    48    6   0.0000   2.4999  -0.1111  0.05555   1.0669E-03  4.6814E-04  1.1651E-03   23.691
    49    6   0.0000   2.4999  -0.0556  0.05555   1.2986E-03  5.4648E-04  1.4089E-03   22.822
    50    6   0.0000   2.4999   0.0000  0.05555   1.3849E-03  5.5772E-04  1.4930E-03   21.936
    51    6   0.0000   2.4999   0.0556  0.05555   1.2986E-03  5.4648E-04  1.4089E-03   22.822
    52    6   0.0000   2.4999   0.1111  0.05555   1.0669E-03  4.6814E-04  1.1651E-03   23.691
    53    6   0.0000   2.4999   0.1667  0.05555   7.1472E-04  3.2363E-04  7.8458E-04   24.361
    54    6   0.0000   2.4999   0.2222  0.05555   2.6519E-04  1.2323E-04  2.9242E-04   24.923
    55    7   0.0000   2.9999  -0.2222  0.05555   1.4333E-03 -4.0798E-04  1.4902E-03  -15.889
    56    7   0.0000   2.9999  -0.1667  0.05555   3.8517E-03 -1.0335E-03  3.9879E-03  -15.020
    57    7   0.0000   2.9999  -0.1111  0.05555   5.7214E-03 -1.4230E-03  5.8957E-03  -13.967
    58    7   0.0000   2.9999  -0.0556  0.05555   6.9091E-03 -1.5422E-03  7.0792E-03  -12.583
    59    7   0.0000   2.9999   0.0000  0.05555   7.3029E-03 -1.4388E-03  7.4433E-03  -11.145
    60    7   0.0000   2.9999   0.0556  0.05555   6.9091E-03 -1.5422E-03  7.0792E-03  -12.583
    61    7   0.0000   2.9999   0.1111  0.05555   5.7214E-03 -1.4230E-03  5.8957E-03  -13.967
    62    7   0.0000   2.9999   0.1667  0.05555   3.8517E-03 -1.0335E-03  3.9879E-03  -15.020
    63    7   0.0000   2.9999   0.2222  0.05555   1.4333E-03 -4.0798E-04  1.4902E-03  -15.889
    64    8   0.0000   3.4999  -0.2222  0.05555   2.6489E-04  1.2315E-04  2.9211E-04   24.935
    65    8   0.0000   3.4999  -0.1667  0.05555   7.1390E-04  3.2344E-04  7.8375E-04   24.373
    66    8   0.0000   3.4999  -0.1111  0.05555   1.0657E-03  4.6787E-04  1.1639E-03   23.703
    67    8   0.0000   3.4999  -0.0556  0.05555   1.2971E-03  5.4618E-04  1.4074E-03   22.834
    68    8   0.0000   3.4999   0.0000  0.05555   1.3833E-03  5.5742E-04  1.4914E-03   21.948
    69    8   0.0000   3.4999   0.0556  0.05555   1.2971E-03  5.4618E-04  1.4074E-03   22.834
    70    8   0.0000   3.4999   0.1111  0.05555   1.0657E-03  4.6787E-04  1.1639E-03   23.703
    71    8   0.0000   3.4999   0.1667  0.05555   7.1390E-04  3.2344E-04  7.8375E-04   24.373
    72    8   0.0000   3.4999   0.2222  0.05555   2.6489E-04  1.2315E-04  2.9211E-04   24.935
    73    9   0.0000   3.9999  -0.2222  0.05555  -9.8456E-05 -1.7461E-05  9.9992E-05 -169.943
    74    9   0.0000   3.9999  -0.1667  0.05555  -2.6556E-04 -4.3271E-05  2.6906E-04 -170.745
    75    9   0.0000   3.9999  -0.1111  0.05555  -3.9610E-04 -5.8636E-05  4.0042E-04 -171.579
    76    9   0.0000   3.9999  -0.0556  0.05555  -4.8074E-04 -6.2940E-05  4.8484E-04 -172.541
    77    9   0.0000   3.9999   0.0000  0.05555  -5.1065E-04 -5.8561E-05  5.1400E-04 -173.458
    78    9   0.0000   3.9999   0.0556  0.05555  -4.8074E-04 -6.2940E-05  4.8484E-04 -172.541
    79    9   0.0000   3.9999   0.1111  0.05555  -3.9610E-04 -5.8636E-05  4.0042E-04 -171.579
    80    9   0.0000   3.9999   0.1667  0.05555  -2.6556E-04 -4.3271E-05  2.6906E-04 -170.745
    81    9   0.0000   3.9999   0.2222  0.05555  -9.8456E-05 -1.7461E-05  9.9992E-05 -169.943
    82   10   0.0000   4.4999  -0.2222  0.05555   5.4593E-05  7.7476E-07  5.4599E-05    0.813
    83   10   0.0000   4.4999  -0.1667  0.05555   1.4716E-04  2.7443E-08  1.4716E-04    0.011
    84   10   0.0000   4.4999  -0.1111  0.05555   2.1922E-04 -3.1399E-06  2.1925E-04   -0.821
    85   10   0.0000   4.4999  -0.0556  0.05555   2.6551E-04 -8.2469E-06  2.6564E-04   -1.779
    86   10   0.0000   4.4999   0.0000  0.05555   2.8136E-04 -1.3241E-05  2.8167E-04   -2.694
    87   10   0.0000   4.4999   0.0556  0.05555   2.6551E-04 -8.2469E-06  2.6564E-04   -1.779
    88   10   0.0000   4.4999   0.1111  0.05555   2.1922E-04 -3.1399E-06  2.1925E-04   -0.821
    89   10   0.0000   4.4999   0.1667  0.05555   1.4716E-04  2.7443E-08  1.4716E-04    0.011
    90   10   0.0000   4.4999   0.2222  0.05555   5.4593E-05  7.7476E-07  5.4599E-05    0.813
    91   11   0.0000   4.9999  -0.2222  0.05555  -3.5711E-05  3.1487E-06  3.5850E-05  174.961
    92   11   0.0000   4.9999  -0.1667  0.05555  -9.6207E-05  9.8193E-06  9.6706E-05  174.172
    93   11   0.0000   4.9999  -0.1111  0.05555  -1.4319E-04  1.6691E-05  1.4416E-04  173.351
    94   11   0.0000   4.9999  -0.0556  0.05555  -1.7318E-04  2.3110E-05  1.7471E-04  172.399
    95   11   0.0000   4.9999   0.0000  0.05555  -1.8323E-04  2.7430E-05  1.8527E-04  171.486
    96   11   0.0000   4.9999   0.0556  0.05555  -1.7318E-04  2.3110E-05  1.7471E-04  172.399
    97   11   0.0000   4.9999   0.1111  0.05555  -1.4319E-04  1.6691E-05  1.4416E-04  173.351
    98   11   0.0000   4.9999   0.1667  0.05555  -9.6207E-05  9.8193E-06  9.6706E-05  174.172
    99   11   0.0000   4.9999   0.2222  0.05555  -3.5711E-05  3.1487E-06  3.5850E-05  174.961
   100   12   0.0000   5.4999  -0.2222  0.05555   2.5719E-05 -4.1166E-06  2.6046E-05   -9.094
   101   12   0.0000   5.4999  -0.1667  0.05555   6.9256E-05 -1.2050E-05  7.0296E-05   -9.870
   102   12   0.0000   5.4999  -0.1111  0.05555   1.0301E-04 -1.9430E-05  1.0482E-04  -10.682
   103   12   0.0000   5.4999  -0.0556  0.05555   1.2445E-04 -2.5612E-05  1.2706E-04  -11.629
   104   12   0.0000   5.4999   0.0000  0.05555   1.3154E-04 -2.9258E-05  1.3475E-04  -12.540
   105   12   0.0000   5.4999   0.0556  0.05555   1.2445E-04 -2.5612E-05  1.2706E-04  -11.629
   106   12   0.0000   5.4999   0.1111  0.05555   1.0301E-04 -1.9430E-05  1.0482E-04  -10.682
   107   12   0.0000   5.4999   0.1667  0.05555   6.9256E-05 -1.2050E-05  7.0296E-05   -9.870
   108   12   0.0000   5.4999   0.2222  0.05555   2.5719E-05 -4.1166E-06  2.6046E-05   -9.094
   109   13   0.0000   5.9998  -0.2222  0.05555  -1.9748E-05  4.2149E-06  2.0193E-05  167.952
   110   13   0.0000   5.9998  -0.1667  0.05555  -5.3159E-05  1.2091E-05  5.4517E-05  167.186
   111   13   0.0000   5.9998  -0.1111  0.05555  -7.9025E-05  1.9145E-05  8.1311E-05  166.381
   112   13   0.0000   5.9998  -0.0556  0.05555  -9.5409E-05  2.4783E-05  9.8575E-05  165.439
   113   13   0.0000   5.9998   0.0000  0.05555  -1.0076E-04  2.7887E-05  1.0454E-04  164.529
   114   13   0.0000   5.9998   0.0556  0.05555  -9.5409E-05  2.4783E-05  9.8575E-05  165.439
   115   13   0.0000   5.9998   0.1111  0.05555  -7.9025E-05  1.9145E-05  8.1311E-05  166.381
   116   13   0.0000   5.9998   0.1667  0.05555  -5.3159E-05  1.2091E-05  5.4517E-05  167.186
   117   13   0.0000   5.9998   0.2222  0.05555  -1.9748E-05  4.2149E-06  2.0193E-05  167.952
   118   14   0.0000   6.4998  -0.2222  0.05555   1.5885E-05 -4.0316E-06  1.6389E-05  -14.241
   119   14   0.0000   6.4998  -0.1667  0.05555   4.2749E-05 -1.1453E-05  4.4257E-05  -14.998
   120   14   0.0000   6.4998  -0.1111  0.05555   6.3525E-05 -1.7972E-05  6.6018E-05  -15.797
   121   14   0.0000   6.4998  -0.0556  0.05555   7.6652E-05 -2.3049E-05  8.0042E-05  -16.736
   122   14   0.0000   6.4998   0.0000  0.05555   8.0896E-05 -2.5731E-05  8.4890E-05  -17.645
   123   14   0.0000   6.4998   0.0556  0.05555   7.6652E-05 -2.3049E-05  8.0042E-05  -16.736
   124   14   0.0000   6.4998   0.1111  0.05555   6.3525E-05 -1.7972E-05  6.6018E-05  -15.797
   125   14   0.0000   6.4998   0.1667  0.05555   4.2749E-05 -1.1453E-05  4.4257E-05  -14.998
   126   14   0.0000   6.4998   0.2222  0.05555   1.5885E-05 -4.0316E-06  1.6389E-05  -14.241
   127   15   0.0000   6.9998  -0.2222  0.05555  -1.3250E-05  3.7600E-06  1.3774E-05  164.158
   128   15   0.0000   6.9998  -0.1667  0.05555  -3.5653E-05  1.0623E-05  3.7202E-05  163.408
   129   15   0.0000   6.9998  -0.1111  0.05555  -5.2964E-05  1.6584E-05  5.5500E-05  162.614
   130   15   0.0000   6.9998  -0.0556  0.05555  -6.3882E-05  2.1155E-05  6.7294E-05  161.677
   131   15   0.0000   6.9998   0.0000  0.05555  -6.7389E-05  2.3508E-05  7.1372E-05  160.769
   132   15   0.0000   6.9998   0.0556  0.05555  -6.3882E-05  2.1155E-05  6.7294E-05  161.677
   133   15   0.0000   6.9998   0.1111  0.05555  -5.2964E-05  1.6584E-05  5.5500E-05  162.614
   134   15   0.0000   6.9998   0.1667  0.05555  -3.5653E-05  1.0623E-05  3.7202E-05  163.408
   135   15   0.0000   6.9998   0.2222  0.05555  -1.3250E-05  3.7600E-06  1.3774E-05  164.158
   136   16   0.0000   7.4998  -0.2222  0.05555   1.1399E-05 -3.4650E-06  1.1914E-05  -16.908
   137   16   0.0000   7.4998  -0.1667  0.05555   3.0668E-05 -9.7596E-06  3.2183E-05  -17.653
   138   16   0.0000   7.4998  -0.1111  0.05555   4.5551E-05 -1.5191E-05  4.8017E-05  -18.444
   139   16   0.0000   7.4998  -0.0556  0.05555   5.4925E-05 -1.9319E-05  5.8223E-05  -19.378
   140   16   0.0000   7.4998   0.0000  0.05555   5.7922E-05 -2.1409E-05  6.1752E-05  -20.286
   141   16   0.0000   7.4998   0.0556  0.05555   5.4925E-05 -1.9319E-05  5.8223E-05  -19.378
   142   16   0.0000   7.4998   0.1111  0.05555   4.5551E-05 -1.5191E-05  4.8017E-05  -18.444
   143   16   0.0000   7.4998   0.1667  0.05555   3.0668E-05 -9.7596E-06  3.2183E-05  -17.653
   144   16   0.0000   7.4998   0.2222  0.05555   1.1399E-05 -3.4650E-06  1.1914E-05  -16.908
   145   17   0.0000   7.9998  -0.2222  0.05555  -1.0097E-05  3.1609E-06  1.0580E-05  162.616
   146   17   0.0000   7.9998  -0.1667  0.05555  -2.7163E-05  8.8919E-06  2.8582E-05  161.874
   147   17   0.0000   7.9998  -0.1111  0.05555  -4.0343E-05  1.3824E-05  4.2646E-05  161.085
   148   17   0.0000   7.9998  -0.0556  0.05555  -4.8640E-05  1.7558E-05  5.1712E-05  160.152
   149   17   0.0000   7.9998   0.0000  0.05555  -5.1288E-05  1.9436E-05  5.4847E-05  159.245
   150   17   0.0000   7.9998   0.0556  0.05555  -4.8640E-05  1.7558E-05  5.1712E-05  160.152
   151   17   0.0000   7.9998   0.1111  0.05555  -4.0343E-05  1.3824E-05  4.2646E-05  161.085
   152   17   0.0000   7.9998   0.1667  0.05555  -2.7163E-05  8.8919E-06  2.8582E-05  161.874
   153   17   0.0000   7.9998   0.2222  0.05555  -1.0097E-05  3.1609E-06  1.0580E-05  162.616
   154   18   0.0000   8.4998  -0.2222  0.05555   9.2398E-06 -2.8257E-06  9.6623E-06  -17.005
   155   18   0.0000   8.4998  -0.1667  0.05555   2.4861E-05 -7.9572E-06  2.6103E-05  -17.748
   156   18   0.0000   8.4998  -0.1111  0.05555   3.6928E-05 -1.2383E-05  3.8949E-05  -18.538
   157   18   0.0000   8.4998  -0.0556  0.05555   4.4529E-05 -1.5744E-05  4.7230E-05  -19.471
   158   18   0.0000   8.4998   0.0000  0.05555   4.6958E-05 -1.7443E-05  5.0093E-05  -20.378
   159   18   0.0000   8.4998   0.0556  0.05555   4.4529E-05 -1.5744E-05  4.7230E-05  -19.471
   160   18   0.0000   8.4998   0.1111  0.05555   3.6928E-05 -1.2383E-05  3.8949E-05  -18.538
   161   18   0.0000   8.4998   0.1667  0.05555   2.4861E-05 -7.9572E-06  2.6103E-05  -17.748
   162   18   0.0000   8.4998   0.2222  0.05555   9.2398E-06 -2.8257E-06  9.6623E-06  -17.005
   163   19   0.0000   8.9998  -0.2222  0.05555  -8.8700E-06  2.3520E-06  9.1765E-06  165.149
   164   19   0.0000   8.9998  -0.1667  0.05555  -2.3875E-05  6.6682E-06  2.4788E-05  164.395
   165   19   0.0000   8.9998  -0.1111  0.05555  -3.5479E-05  1.0443E-05  3.6984E-05  163.598
   166   19   0.0000   8.9998  -0.0556  0.05555  -4.2808E-05  1.3366E-05  4.4846E-05  162.660
   167   19   0.0000   8.9998   0.0000  0.05555  -4.5172E-05  1.4894E-05  4.7564E-05  161.752
   168   19   0.0000   8.9998   0.0556  0.05555  -4.2808E-05  1.3366E-05  4.4846E-05  162.660
   169   19   0.0000   8.9998   0.1111  0.05555  -3.5479E-05  1.0443E-05  3.6984E-05  163.598
   170   19   0.0000   8.9998   0.1667  0.05555  -2.3875E-05  6.6682E-06  2.4788E-05  164.395
   171   19   0.0000   8.9998   0.2222  0.05555  -8.8700E-06  2.3520E-06  9.1765E-06  165.149
   172   20   0.0000   9.4998  -0.2222  0.05555   9.5855E-06 -1.0706E-06  9.6451E-06   -6.373
   173   20   0.0000   9.4998  -0.1667  0.05555   2.5817E-05 -3.2371E-06  2.6020E-05   -7.147
   174   20   0.0000   9.4998  -0.1111  0.05555   3.8413E-05 -5.3701E-06  3.8787E-05   -7.958
   175   20   0.0000   9.4998  -0.0556  0.05555   4.6440E-05 -7.2768E-06  4.7007E-05   -8.905
   176   20   0.0000   9.4998   0.0000  0.05555   4.9118E-05 -8.4990E-06  4.9848E-05   -9.817
   177   20   0.0000   9.4998   0.0556  0.05555   4.6440E-05 -7.2768E-06  4.7007E-05   -8.905
   178   20   0.0000   9.4998   0.1111  0.05555   3.8413E-05 -5.3701E-06  3.8787E-05   -7.958
   179   20   0.0000   9.4998   0.1667  0.05555   2.5817E-05 -3.2371E-06  2.6020E-05   -7.147
   180   20   0.0000   9.4998   0.2222  0.05555   9.5855E-06 -1.0706E-06  9.6451E-06   -6.373



                                        - - - POWER BUDGET - - -

                                           INPUT POWER   = 3.6514E-03 WATTS
                                           RADIATED POWER= 2.1335E-03 WATTS
                                           STRUCTURE LOSS= 1.5179E-03 WATTS
                                           NETWORK LOSS  = 0.0000E+00 WATTS
                                           EFFICIENCY    =  58.43 PERCENT



                                                - - - RADIATION PATTERNS - - -

  - - ANGLES - -           - POWER GAINS -       - - - POLARIZATION - - -    - - - E(THETA) - - -    - - - E(PHI) - - -
  THETA     PHI        VERT.   HOR.    TOTAL      AXIAL     TILT   SENSE     MAGNITUDE    PHASE      MAGNITUDE    PHASE 
 DEGREES  DEGREES       DB      DB      DB        RATIO     DEG.              VOLTS/M    DEGREES      VOLTS/M    DEGREES
 -180.00     0.00    -999.99 -999.99 -999.99    0.00000     0.00            4.56991E-12    86.00    0.00000E+00     0.00
 -175.00     0.00     -21.56 -999.99  -21.56    0.00000     0.00  LINEAR    3.90992E-02   -94.00    0.00000E+00     0.00
 -170.00     0.00     -15.52 -999.99  -15.52    0.00000     0.00  LINEAR    7.83566E-02   -94.01    0.00000E+00     0.00
 -165.00     0.00     -11.97 -999.99  -11.97    0.00000     0.00  LINEAR    1.17904E-01   -94.02    0.00000E+00     0.00
 -160.00     0.00      -9.44 -999.99   -9.44    0.00000     0.00  LINEAR    1.57823E-01   -94.03    0.00000E+00     0.00
 -155.00     0.00      -7.46 -999.99   -7.46    0.00000     0.00  LINEAR    1.98117E-01   -94.05    0.00000E+00     0.00
 -150.00     0.00      -5.85 -999.99   -5.85    0.00000     0.00  LINEAR    2.38696E-01   -94.07    0.00000E+00     0.00
 -145.00     0.00      -4.48 -999.99   -4.48    0.00000     0.00  LINEAR    2.79357E-01   -94.09    0.00000E+00     0.00
 -140.00     0.00      -3.31 -999.99   -3.31    0.00000     0.00  LINEAR    3.19776E-01   -94.12    0.00000E+00     0.00
 -135.00     0.00      -2.29 -999.99   -2.29    0.00000     0.00  LINEAR    3.59503E-01   -94.14    0.00000E+00     0.00
 -130.00     0.00      -1.41 -999.99   -1.41    0.00000     0.00  LINEAR    3.97973E-01   -94.16    0.00000E+00     0.00
 -125.00     0.00      -0.64 -999.99   -0.64    0.00000     0.00  LINEAR    4.34516E-01   -94.18    0.00000E+00     0.00
 -120.00     0.00       0.01 -999.99    0.01    0.00000     0.00  LINEAR    4.68389E-01   -94.20    0.00000E+00     0.00
 -115.00     0.00       0.56 -999.99    0.56    0.00000     0.00  LINEAR    4.98811E-01   -94.22    0.00000E+00     0.00
 -110.00     0.00       1.00 -999.99    1.00    0.00000     0.00  LINEAR    5.25006E-01   -94.24    0.00000E+00     0.00
 -105.00     0.00       1.34 -999.99    1.34    0.00000     0.00  LINEAR    5.46247E-01   -94.25    0.00000E+00     0.00
 -100.00     0.00       1.59 -999.99    1.59    0.00000     0.00  LINEAR    5.61909E-01   -94.26    0.00000E+00     0.00
  -95.00     0.00       1.74 -999.99    1.74    0.00000     0.00  LINEAR    5.71509E-01   -94.26    0.00000E+00     0.00
  -90.00     0.00       1.79 -999.99    1.79    0.00000     0.00  LINEAR    5.74744E-01   -94.27    0.00000E+00     0.00
  -85.00     0.00       1.74 -999.99    1.74    0.00000     0.00  LINEAR    5.71509E-01   -94.26    0.00000E+00     0.00
  -80.00     0.00       1.59 -999.99    1.59    0.00000     0.00  LINEAR    5.61909E-01   -94.26    0.00000E+00     0.00
  -75.00     0.00       1.34 -999.99    1.34    0.00000     0.00  LINEAR    5.46247E-01   -94.25    0.00000E+00     0.00
  -70.00     0.00       1.00 -999.99    1.00    0.00000     0.00  LINEAR    5.25006E-01   -94.24    0.00000E+00     0.00
  -65.00     0.00       0.56 -999.99    0.56    0.00000     0.00  LINEAR    4.98811E-01   -94.22    0.00000E+00     0.00
  -60.00     0.00       0.01 -999.99    0.01    0.00000     0.00  LINEAR    4.68389E-01   -94.20    0.00000E+00     0.00
  -55.00     0.00      -0.64 -999.99   -0.64    0.00000     0.00  LINEAR    4.34516E-01   -94.18    0.00000E+00     0.00
  -50.00     0.00      -1.41 -999.99   -1.41    0.00000     0.00  LINEAR    3.97973E-01   -94.16    0.00000E+00     0.00
  -45.00     0.00      -2.29 -999.99   -2.29    0.00000     0.00  LINEAR    3.59503E-01   -94.14    0.00000E+00     0.00
  -40.00     0.00      -3.31 -999.99   -3.31    0.00000     0.00  LINEAR    3.19776E-01   -94.12    0.00000E+00     0.00
  -35.00     0.00      -4.48 -999.99   -4.48    0.00000     0.00  LINEAR    2.79357E-01   -94.09    0.00000E+00     0.00
  -30.00     0.00      -5.85 -999.99   -5.85    0.00000     0.00  LINEAR    2.38696E-01   -94.07    0.00000E+00     0.00
  -25.00     0.00      -7.46 -999.99   -7.46    0.00000     0.00  LINEAR    1.98117E-01   -94.05    0.00000E+00     0.00
  -20.00     0.00      -9.44 -999.99   -9.44    0.00000     0.00  LINEAR    1.57823E-01   -94.03    0.00000E+00     0.00
  -15.00     0.00     -11.97 -999.99  -11.97    0.00000     0.00  LINEAR    1.17904E-01   -94.02    0.00000E+00     0.00
  -10.00     0.00     -15.52 -999.99  -15.52    0.00000     0.00  LINEAR    7.83566E-02   -94.01    0.00000E+00     0.00
   -5.00     0.00     -21.56 -999.99  -21.56    0.00000     0.00  LINEAR    3.90992E-02   -94.00    0.00000E+00     0.00
    0.00     0.00    -999.99 -999.99 -999.99    0.00000     0.00            0.00000E+00     0.00    0.00000E+00     0.00
 -180.00     5.00    -999.99 -999.99 -999.99    0.00000     0.00            4.56991E-12    86.00    0.00000E+00     0.00
 -175.00     5.00     -21.56 -999.99  -21.56    0.00000     0.00  LINEAR    3.91007E-02  -102.32    0.00000E+00     0.00
 -170.00     5.00     -15.52 -999.99  -15.52    0.00000     0.00  LINEAR    7.83498E-02  -110.57    0.00000E+00     0.00
 -165.00     5.00     -11.98 -999.99  -11.98    0.00000     0.00  LINEAR    1.17864E-01  -118.70    0.00000E+00     0.00
 -160.00     5.00      -9.45 -999.99   -9.45    0.00000     0.00  LINEAR    1.57719E-01  -126.62    0.00000E+00     0.00
 -155.00     5.00      -7.47 -999.99   -7.47    0.00000     0.00  LINEAR    1.97922E-01  -134.29    0.00000E+00     0.00
 -150.00     5.00      -5.86 -999.99   -5.86    0.00000     0.00  LINEAR    2.38395E-01  -141.64    0.00000E+00     0.00
 -145.00     5.00      -4.49 -999.99   -4.49    0.00000     0.00  LINEAR    2.78954E-01  -148.61    0.00000E+00     0.00
 -140.00     5.00      -3.32 -999.99   -3.32    0.00000     0.00  LINEAR    3.19293E-01  -155.16    0.00000E+00     0.00
 -135.00     5.00      -2.30 -999.99   -2.30    0.00000     0.00  LINEAR    3.58978E-01  -161.23    0.00000E+00     0.00
 -130.00     5.00      -1.42 -999.99   -1.42    0.00000     0.00  LINEAR    3.97451E-01  -166.80    0.00000E+00     0.00
 -125.00     5.00      -0.65 -999.99   -0.65    0.00000     0.00  LINEAR    4.34045E-01  -171.80    0.00000E+00     0.00
 -120.00     5.00       0.00 -999.99    0.00    0.00000     0.00  LINEAR    4.68010E-01  -176.22    0.00000E+00     0.00
 -115.00     5.00       0.55 -999.99    0.55    0.00000     0.00  LINEAR    4.98550E-01   179.98    0.00000E+00     0.00
 -110.00     5.00       1.00 -999.99    1.00    0.00000     0.00  LINEAR    5.24873E-01   176.84    0.00000E+00     0.00
 -105.00     5.00       1.34 -999.99    1.34    0.00000     0.00  LINEAR    5.46235E-01   174.37    0.00000E+00     0.00
 -100.00     5.00       1.59 -999.99    1.59    0.00000     0.00  LINEAR    5.61996E-01   172.59    0.00000E+00     0.00
  -95.00     5.00       1.74 -999.99    1.74    0.00000     0.00  LINEAR    5.71661E-01   171.52    0.00000E+00     0.00
  -90.00     5.00       1.79 -999.99    1.79    0.00000     0.00  LINEAR    5.74918E-01   171.16    0.00000E+00     0.00
  -85.00     5.00       1.74 -999.99    1.74    0.00000     0.00  LINEAR    5.71661E-01   171.52    0.00000E+00     0.00
  -80.00     5.00       1.59 -999.99    1.59    0.00000     0.00  LINEAR    5.61996E-01   172.59    0.00000E+00     0.00
  -75.00     5.00       1.34 -999.99    1.34    0.00000     0.00  LINEAR    5.46235E-01   174.37    0.00000E+00     0.00
  -70.00     5.00       1.00 -999.99    1.00    0.00000     0.00  LINEAR    5.24873E-01   176.84    0.00000E+00     0.00
  -65.00     5.00       0.55 -999.99    0.55    0.00000     0.00  LINEAR    4.98550E-01   179.98    0.00000E+00     0.00
  -60.00     5.00       0.00 -999.99    0.00    0.00000     0.00  LINEAR    4.68010E-01  -176.22    0.00000E+00     0.00
  -55.00     5.00      -0.65 -999.99   -0.65    0.00000     0.00  LINEAR    4.34045E-01  -171.80    0.00000E+00     0.00
  -50.00     5.00      -1.42 -999.99   -1.42    0.00000     0.00  LINEAR    3.97451E-01  -166.80    0.00000E+00     0.00
  -45.00     5.00      -2.30 -999.99   -2.30    0.00000     0.00  LINEAR    3.58978E-01  -161.23    0.00000E+00     0.00
  -40.00     5.00      -3.32 -999.99   -3.32    0.00000     0.00  LINEAR    3.19293E-01  -155.16    0.00000E+00     0.00
  -35.00     5.00      -4.49 -999.99   -4.49    0.00000     0.00  LINEAR    2.78954E-01  -148.61    0.00000E+00     0.00
  -30.00     5.00      -5.86 -999.99   -5.86    0.00000     0.00  LINEAR    2.38395E-01  -141.64    0.00000E+00     0.00
  -25.00     5.00      -7.47 -999.99   -7.47    0.00000     0.00  LINEAR    1.97922E-01  -134.29    0.00000E+00     0.00
  -20.00     5.00      -9.45 -999.99   -9.45    0.00000     0.00  LINEAR    1.57719E-01  -126.62    0.00000E+00     0.00
  -15.00     5.00     -11.98 -999.99  -11.98    0.00000     0.00  LINEAR    1.17864E-01  -118.70    0.00000E+00     0.00
  -10.00     5.00     -15.52 -999.99  -15.52    0.00000     0.00  LINEAR    7.83498E-02  -110.57    0.00000E+00     0.00
   -5.00     5.00     -21.56 -999.99  -21.56    0.00000     0.00  LINEAR    3.91007E-02  -102.32    0.00000E+00     0.00
    0.00     5.00    -999.99 -999.99 -999.99    0.00000     0.00            0.00000E+00     0.00    0.00000E+00     0.00
 -180.00    10.00    -999.99 -999.99 -999.99    0.00000     0.00            4.56991E-12    86.00    0.00000E+00     0.00
 -175.00    10.00     -21.56 -999.99  -21.56    0.00000     0.00  LINEAR    3.90957E-02  -110.57    0.00000E+00     0.00
 -170.00    10.00     -15.53 -999.99  -15.53    0.00000     0.00  LINEAR    7.83033E-02  -126.97    0.00000E+00     0.00
 -165.00    10.00     -11.98 -999.99  -11.98    0.00000     0.00  LINEAR    1.17748E-01  -143.06    0.00000E+00     0.00
 -160.00    10.00      -9.45 -999.99   -9.45    0.00000     0.00  LINEAR    1.57582E-01  -158.71    0.00000E+00     0.00
 -155.00    10.00      -7.47 -999.99   -7.47    0.00000     0.00  LINEAR    1.97919E-01  -173.81    0.00000E+00     0.00
 -150.00    10.00      -5.84 -999.99   -5.84    0.00000     0.00  LINEAR    2.38747E-01   171.71    0.00000E+00     0.00
 -145.00    10.00      -4.46 -999.99   -4.46    0.00000     0.00  LINEAR    2.79859E-01   157.94    0.00000E+00     0.00
 -140.00    10.00      -3.28 -999.99   -3.28    0.00000     0.00  LINEAR    3.20828E-01   144.96    0.00000E+00     0.00
 -135.00    10.00      -2.25 -999.99   -2.25    0.00000     0.00  LINEAR    3.61053E-01   132.87    0.00000E+00     0.00
 -130.00    10.00      -1.37 -999.99   -1.37    0.00000     0.00  LINEAR    3.99819E-01   121.77    0.00000E+00     0.00
 -125.00    10.00      -0.61 -999.99   -0.61    0.00000     0.00  LINEAR    4.36368E-01   111.75    0.00000E+00     0.00
 -120.00    10.00       0.04 -999.99    0.04    0.00000     0.00  LINEAR    4.69945E-01   102.90    0.00000E+00     0.00
 -115.00    10.00       0.57 -999.99    0.57    0.00000     0.00  LINEAR    4.99827E-01    95.29    0.00000E+00     0.00
 -110.00    10.00       1.01 -999.99    1.01    0.00000     0.00  LINEAR    5.25346E-01    88.98    0.00000E+00     0.00
 -105.00    10.00       1.34 -999.99    1.34    0.00000     0.00  LINEAR    5.45899E-01    84.03    0.00000E+00     0.00
 -100.00    10.00       1.58 -999.99    1.58    0.00000     0.00  LINEAR    5.60976E-01    80.46    0.00000E+00     0.00
  -95.00    10.00       1.72 -999.99    1.72    0.00000     0.00  LINEAR    5.70188E-01    78.32    0.00000E+00     0.00
  -90.00    10.00       1.76 -999.99    1.76    0.00000     0.00  LINEAR    5.73287E-01    77.60    0.00000E+00     0.00
  -85.00    10.00       1.72 -999.99    1.72    0.00000     0.00  LINEAR    5.70188E-01    78.32    0.00000E+00     0.00
  -80.00    10.00       1.58 -999.99    1.58    0.00000     0.00  LINEAR    5.60976E-01    80.46    0.00000E+00     0.00
  -75.00    10.00       1.34 -999.99    1.34    0.00000     0.00  LINEAR    5.45899E-01    84.03    0.00000E+00     0.00
  -70.00    10.00       1.01 -999.99    1.01    0.00000     0.00  LINEAR    5.25346E-01    88.98    0.00000E+00     0.00
  -65.00    10.00       0.57 -999.99    0.57    0.00000     0.00  LINEAR    4.99827E-01    95.29    0.00000E+00     0.00
  -60.00    10.00       0.04 -999.99    0.04    0.00000     0.00  LINEAR    4.69945E-01   102.90    0.00000E+00     0.00
  -55.00    10.00      -0.61 -999.99   -0.61    0.00000     0.00  LINEAR    4.36368E-01   111.75    0.00000E+00     0.00
  -50.00    10.00      -1.37 -999.99   -1.37    0.00000     0.00  LINEAR    3.99819E-01   121.77    0.00000E+00     0.00
  -45.00    10.00      -2.25 -999.99   -2.25    0.00000     0.00  LINEAR    3.61053E-01   132.87    0.00000E+00     0.00
  -40.00    10.00      -3.28 -999.99   -3.28    0.00000     0.00  LINEAR    3.20828E-01   144.96    0.00000E+00     0.00
  -35.00    10.00      -4.46 -999.99   -4.46    0.00000     0.00  LINEAR    2.79859E-01   157.94    0.00000E+00     0.00
  -30.00    10.00      -5.84 -999.99   -5.84    0.00000     0.00  LINEAR    2.38747E-01   171.71    0.00000E+00     0.00
  -25.00    10.00      -7.47 -999.99   -7.47    0.00000     0.00  LINEAR    1.97919E-01  -173.81    0.00000E+00     0.00
  -20.00    10.00      -9.45 -999.99   -9.45    0.00000     0.00  LINEAR    1.57582E-01  -158.71    0.00000E+00     0.00
  -15.00    10.00     -11.98 -999.99  -11.98    0.00000     0.00  LINEAR    1.17748E-01  -143.06    0.00000E+00     0.00
  -10.00    10.00     -15.53 -999.99  -15.53    0.00000     0.00  LINEAR    7.83033E-02  -126.97    0.00000E+00     0.00
   -5.00    10.00     -21.56 -999.99  -21.56    0.00000     0.00  LINEAR    3.90957E-02  -110.57    0.00000E+00     0.00
    0.00    10.00    -999.99 -999.99 -999.99    0.00000     0.00            0.00000E+00     0.00    0.00000E+00     0.00
 -180.00    15.00    -999.99 -999.99 -999.99    0.00000     0.00            4.56991E-12    86.00    0.00000E+00     0.00
 -175.00    15.00     -21.56 -999.99  -21.56    0.00000     0.00  LINEAR    3.90858E-02  -118.68    0.00000E+00     0.00
 -170.00    15.00     -15.53 -999.99  -15.53    0.00000     0.00  LINEAR    7.82525E-02  -143.05    0.00000E+00     0.00
 -165.00    15.00     -11.98 -999.99  -11.98    0.00000     0.00  LINEAR    1.17746E-01  -166.89    0.00000E+00     0.00
 -160.00    15.00      -9.44 -999.99   -9.44    0.00000     0.00  LINEAR    1.57886E-01   169.92    0.00000E+00     0.00
 -155.00    15.00      -7.44 -999.99   -7.44    0.00000     0.00  LINEAR    1.98715E-01   147.44    0.00000E+00     0.00
 -150.00    15.00      -5.81 -999.99   -5.81    0.00000     0.00  LINEAR    2.39791E-01   125.77    0.00000E+00     0.00
 -145.00    15.00      -4.45 -999.99   -4.45    0.00000     0.00  LINEAR    2.80356E-01   105.11    0.00000E+00     0.00
 -140.00    15.00      -3.31 -999.99   -3.31    0.00000     0.00  LINEAR    3.19691E-01    85.64    0.00000E+00     0.00
 -135.00    15.00      -2.34 -999.99   -2.34    0.00000     0.00  LINEAR    3.57337E-01    67.58    0.00000E+00     0.00
 -130.00    15.00      -1.51 -999.99   -1.51    0.00000     0.00  LINEAR    3.93049E-01    51.05    0.00000E+00     0.00
 -125.00    15.00      -0.80 -999.99   -0.80    0.00000     0.00  LINEAR    4.26592E-01    36.16    0.00000E+00     0.00
 -120.00    15.00      -0.19 -999.99   -0.19    0.00000     0.00  LINEAR    4.57578E-01    23.01    0.00000E+00     0.00
 -115.00    15.00       0.32 -999.99    0.32    0.00000     0.00  LINEAR    4.85429E-01    11.68    0.00000E+00     0.00
 -110.00    15.00       0.74 -999.99    0.74    0.00000     0.00  LINEAR    5.09458E-01     2.26    0.00000E+00     0.00
 -105.00    15.00       1.07 -999.99    1.07    0.00000     0.00  LINEAR    5.28972E-01    -5.16    0.00000E+00     0.00
 -100.00    15.00       1.30 -999.99    1.30    0.00000     0.00  LINEAR    5.43372E-01   -10.52    0.00000E+00     0.00
  -95.00    15.00       1.44 -999.99    1.44    0.00000     0.00  LINEAR    5.52199E-01   -13.76    0.00000E+00     0.00
  -90.00    15.00       1.49 -999.99    1.49    0.00000     0.00  LINEAR    5.55173E-01   -14.84    0.00000E+00     0.00
  -85.00    15.00       1.44 -999.99    1.44    0.00000     0.00  LINEAR    5.52199E-01   -13.76    0.00000E+00     0.00
  -80.00    15.00       1.30 -999.99    1.30    0.00000     0.00  LINEAR    5.43372E-01   -10.52    0.00000E+00     0.00
  -75.00    15.00       1.07 -999.99    1.07    0.00000     0.00  LINEAR    5.28972E-01    -5.16    0.00000E+00     0.00
  -70.00    15.00       0.74 -999.99    0.74    0.00000     0.00  LINEAR    5.09458E-01     2.26    0.00000E+00     0.00
  -65.00    15.00       0.32 -999.99    0.32    0.00000     0.00  LINEAR    4.85429E-01    11.68    0.00000E+00     0.00
  -60.00    15.00      -0.19 -999.99   -0.19    0.00000     0.00  LINEAR    4.57578E-01    23.01    0.00000E+00     0.00
  -55.00    15.00      -0.80 -999.99   -0.80    0.00000     0.00  LINEAR    4.26592E-01    36.16    0.00000E+00     0.00
  -50.00    15.00      -1.51 -999.99   -1.51    0.00000     0.00  LINEAR    3.93049E-01    51.05    0.00000E+00     0.00
  -45.00    15.00      -2.34 -999.99   -2.34    0.00000     0.00  LINEAR    3.57337E-01    67.58    0.00000E+00     0.00
  -40.00    15.00      -3.31 -999.99   -3.31    0.00000     0.00  LINEAR    3.19691E-01    85.64    0.00000E+00     0.00
  -35.00    15.00      -4.45 -999.99   -4.45    0.00000     0.00  LINEAR    2.80356E-01   105.11    0.00000E+00     0.00
  -30.00    15.00      -5.81 -999.99   -5.81    0.00000     0.00  LINEAR    2.39791E-01   125.77    0.00000E+00     0.00
  -25.00    15.00      -7.44 -999.99   -7.44    0.00000     0.00  LINEAR    1.98715E-01   147.44    0.00000E+00     0.00
  -20.00    15.00      -9.44 -999.99   -9.44    0.00000     0.00  LINEAR    1.57886E-01   169.92    0.00000E+00     0.00
  -15.00    15.00     -11.98 -999.99  -11.98    0.00000     0.00  LINEAR    1.17746E-01  -166.89    0.00000E+00     0.00
  -10.00    15.00     -15.53 -999.99  -15.53    0.00000     0.00  LINEAR    7.82525E-02  -143.05    0.00000E+00     0.00
   -5.00    15.00     -21.56 -999.99  -21.56    0.00000     0.00  LINEAR    3.90858E-02  -118.68    0.00000E+00     0.00
    0.00    15.00    -999.99 -999.99 -999.99    0.00000     0.00            0.00000E+00     0.00    0.00000E+00     0.00
 -180.00    20.00    -999.99 -999.99 -999.99    0.00000     0.00            4.56991E-12    86.00    0.00000E+00     0.00
 -175.00    20.00     -21.57 -999.99  -21.57    0.00000     0.00  LINEAR    3.90731E-02  -126.59    0.00000E+00     0.00
 -170.00    20.00     -15.53 -999.99  -15.53    0.00000     0.00  LINEAR    7.82363E-02  -158.68    0.00000E+00     0.00
 -165.00    20.00     -11.97 -999.99  -11.97    0.00000     0.00  LINEAR    1.17951E-01   169.94    0.00000E+00     0.00
 -160.00    20.00      -9.41 -999.99   -9.41    0.00000     0.00  LINEAR    1.58427E-01   139.26    0.00000E+00     0.00
 -155.00    20.00      -7.43 -999.99   -7.43    0.00000     0.00  LINEAR    1.98915E-01   109.39    0.00000E+00     0.00
 -150.00    20.00      -5.86 -999.99   -5.86    0.00000     0.00  LINEAR    2.38288E-01    80.65    0.00000E+00     0.00
 -145.00    20.00      -4.58 -999.99   -4.58    0.00000     0.00  LINEAR    2.76146E-01    53.38    0.00000E+00     0.00
 -140.00    20.00      -3.49 -999.99   -3.49    0.00000     0.00  LINEAR    3.12919E-01    27.76    0.00000E+00     0.00
 -135.00    20.00      -2.55 -999.99   -2.55    0.00000     0.00  LINEAR    3.48996E-01     3.85    0.00000E+00     0.00
 -130.00    20.00      -1.72 -999.99   -1.72    0.00000     0.00  LINEAR    3.84064E-01   -18.23    0.00000E+00     0.00
 -125.00    20.00      -1.00 -999.99   -1.00    0.00000     0.00  LINEAR    4.17249E-01   -38.31    0.00000E+00     0.00
 -120.00    20.00      -0.38 -999.99   -0.38    0.00000     0.00  LINEAR    4.47619E-01   -56.13    0.00000E+00     0.00
 -115.00    20.00       0.12 -999.99    0.12    0.00000     0.00  LINEAR    4.74468E-01   -71.49    0.00000E+00     0.00
 -110.00    20.00       0.53 -999.99    0.53    0.00000     0.00  LINEAR    4.97290E-01   -84.20    0.00000E+00     0.00
 -105.00    20.00       0.84 -999.99    0.84    0.00000     0.00  LINEAR    5.15659E-01   -94.18    0.00000E+00     0.00
 -100.00    20.00       1.07 -999.99    1.07    0.00000     0.00  LINEAR    5.29166E-01  -101.34    0.00000E+00     0.00
  -95.00    20.00       1.20 -999.99    1.20    0.00000     0.00  LINEAR    5.37444E-01  -105.65    0.00000E+00     0.00
  -90.00    20.00       1.25 -999.99    1.25    0.00000     0.00  LINEAR    5.40235E-01  -107.09    0.00000E+00     0.00
  -85.00    20.00       1.20 -999.99    1.20    0.00000     0.00  LINEAR    5.37444E-01  -105.65    0.00000E+00     0.00
  -80.00    20.00       1.07 -999.99    1.07    0.00000     0.00  LINEAR    5.29166E-01  -101.34    0.00000E+00     0.00
  -75.00    20.00       0.84 -999.99    0.84    0.00000     0.00  LINEAR    5.15659E-01   -94.18    0.00000E+00     0.00
  -70.00    20.00       0.53 -999.99    0.53    0.00000     0.00  LINEAR    4.97290E-01   -84.20    0.00000E+00     0.00
  -65.00    20.00       0.12 -999.99    0.12    0.00000     0.00  LINEAR    4.74468E-01   -71.49    0.00000E+00     0.00
  -60.00    20.00      -0.38 -999.99   -0.38    0.00000     0.00  LINEAR    4.47619E-01   -56.13    0.00000E+00     0.00
  -55.00    20.00      -1.00 -999.99   -1.00    0.00000     0.00  LINEAR    4.17249E-01   -38.31    0.00000E+00     0.00
  -50.00    20.00      -1.72 -999.99   -1.72    0.00000     0.00  LINEAR    3.84064E-01   -18.23    0.00000E+00     0.00
  -45.00    20.00      -2.55 -999.99   -2.55    0.00000     0.00  LINEAR    3.48996E-01     3.85    0.00000E+00     0.00
  -40.00    20.00      -3.49 -999.99   -3.49    0.00000     0.00  LINEAR    3.12919E-01    27.76    0.00000E+00     0.00
  -35.00    20.00      -4.58 -999.99   -4.58    0.00000     0.00  LINEAR    2.76146E-01    53.38    0.00000E+00     0.00
  -30.00    20.00      -5.86 -999.99   -5.86    0.00000     0.00  LINEAR    2.38288E-01    80.65    0.00000E+00     0.00
  -25.00    20.00      -7.43 -999.99   -7.43    0.00000     0.00  LINEAR    1.98915E-01   109.39    0.00000E+00     0.00
  -20.00    20.00      -9.41 -999.99   -9.41    0.00000     0.00  LINEAR    1.58427E-01   139.26    0.00000E+00     0.00
  -15.00    20.00     -11.97 -999.99  -11.97    0.00000     0.00  LINEAR    1.17951E-01   169.94    0.00000E+00     0.00
  -10.00    20.00     -15.53 -999.99  -15.53    0.00000     0.00  LINEAR    7.82363E-02  -158.68    0.00000E+00     0.00
   -5.00    20.00     -21.57 -999.99  -21.57    0.00000     0.00  LINEAR    3.90731E-02  -126.59    0.00000E+00     0.00
    0.00    20.00    -999.99 -999.99 -999.99    0.00000     0.00            0.00000E+00     0.00    0.00000E+00     0.00
 -180.00    25.00    -999.99 -999.99 -999.99    0.00000     0.00            4.56991E-12    86.00    0.00000E+00     0.00
 -175.00    25.00     -21.57 -999.99  -21.57    0.00000     0.00  LINEAR    3.90601E-02  -134.24    0.00000E+00     0.00
 -170.00    25.00     -15.53 -999.99  -15.53    0.00000     0.00  LINEAR    7.82772E-02  -173.77    0.00000E+00     0.00
 -165.00    25.00     -11.95 -999.99  -11.95    0.00000     0.00  LINEAR    1.18260E-01   147.47    0.00000E+00     0.00
 -160.00    25.00      -9.40 -999.99   -9.40    0.00000     0.00  LINEAR    1.58458E-01   109.41    0.00000E+00     0.00
 -155.00    25.00      -7.50 -999.99   -7.50    0.00000     0.00  LINEAR    1.97252E-01    72.44    0.00000E+00     0.00
 -150.00    25.00      -6.00 -999.99   -6.00    0.00000     0.00  LINEAR    2.34405E-01    37.04    0.00000E+00     0.00
 -145.00    25.00      -4.74 -999.99   -4.74    0.00000     0.00  LINEAR    2.71139E-01     3.29    0.00000E+00     0.00
 -140.00    25.00      -3.64 -999.99   -3.64    0.00000     0.00  LINEAR    3.07780E-01   -28.82    0.00000E+00     0.00
 -135.00    25.00      -2.69 -999.99   -2.69    0.00000     0.00  LINEAR    3.43242E-01   -59.00    0.00000E+00     0.00
 -130.00    25.00      -1.89 -999.99   -1.89    0.00000     0.00  LINEAR    3.76581E-01   -86.73    0.00000E+00     0.00
 -125.00    25.00      -1.20 -999.99   -1.20    0.00000     0.00  LINEAR    4.07760E-01  -111.60    0.00000E+00     0.00
 -120.00    25.00      -0.59 -999.99   -0.59    0.00000     0.00  LINEAR    4.36938E-01  -133.40    0.00000E+00     0.00
 -115.00    25.00      -0.08 -999.99   -0.08    0.00000     0.00  LINEAR    4.63705E-01  -152.06    0.00000E+00     0.00
 -110.00    25.00       0.35 -999.99    0.35    0.00000     0.00  LINEAR    4.87107E-01  -167.51    0.00000E+00     0.00
 -105.00    25.00       0.68 -999.99    0.68    0.00000     0.00  LINEAR    5.06133E-01  -179.66    0.00000E+00     0.00
 -100.00    25.00       0.92 -999.99    0.92    0.00000     0.00  LINEAR    5.20064E-01   171.58    0.00000E+00     0.00
  -95.00    25.00       1.06 -999.99    1.06    0.00000     0.00  LINEAR    5.28521E-01   166.29    0.00000E+00     0.00
  -90.00    25.00       1.10 -999.99    1.10    0.00000     0.00  LINEAR    5.31353E-01   164.52    0.00000E+00     0.00
  -85.00    25.00       1.06 -999.99    1.06    0.00000     0.00  LINEAR    5.28521E-01   166.29    0.00000E+00     0.00
  -80.00    25.00       0.92 -999.99    0.92    0.00000     0.00  LINEAR    5.20064E-01   171.58    0.00000E+00     0.00
  -75.00    25.00       0.68 -999.99    0.68    0.00000     0.00  LINEAR    5.06133E-01  -179.66    0.00000E+00     0.00
  -70.00    25.00       0.35 -999.99    0.35    0.00000     0.00  LINEAR    4.87107E-01  -167.51    0.00000E+00     0.00
  -65.00    25.00      -0.08 -999.99   -0.08    0.00000     0.00  LINEAR    4.63705E-01  -152.06    0.00000E+00     0.00
  -60.00    25.00      -0.59 -999.99   -0.59    0.00000     0.00  LINEAR    4.36938E-01  -133.40    0.00000E+00     0.00
  -55.00    25.00      -1.20 -999.99   -1.20    0.00000     0.00  LINEAR    4.07760E-01  -111.60    0.00000E+00     0.00
  -50.00    25.00      -1.89 -999.99   -1.89    0.00000     0.00  LINEAR    3.76581E-01   -86.73    0.00000E+00     0.00
  -45.00    25.00      -2.69 -999.99   -2.69    0.00000     0.00  LINEAR    3.43242E-01   -59.00    0.00000E+00     0.00
  -40.00    25.00      -3.64 -999.99   -3.64    0.00000     0.00  LINEAR    3.07780E-01   -28.82    0.00000E+00     0.00
  -35.00    25.00      -4.74 -999.99   -4.74    0.00000     0.00  LINEAR    2.71139E-01     3.29    0.00000E+00     0.00
  -30.00    25.00      -6.00 -999.99   -6.00    0.00000     0.00  LINEAR    2.34405E-01    37.04    0.00000E+00     0.00
  -25.00    25.00      -7.50 -999.99   -7.50    0.00000     0.00  LINEAR    1.97252E-01    72.44    0.00000E+00     0.00
  -20.00    25.00      -9.40 -999.99   -9.40    0.00000     0.00  LINEAR    1.58458E-01   109.41    0.00000E+00     0.00
  -15.00    25.00     -11.95 -999.99  -11.95    0.00000     0.00  LINEAR    1.18260E-01   147.47    0.00000E+00     0.00
  -10.00    25.00     -15.53 -999.99  -15.53    0.00000     0.00  LINEAR    7.82772E-02  -173.77    0.00000E+00     0.00
   -5.00    25.00     -21.57 -999.99  -21.57    0.00000     0.00  LINEAR    3.90601E-02  -134.24    0.00000E+00     0.00
    0.00    25.00    -999.99 -999.99 -999.99    0.00000     0.00            0.00000E+00     0.00    0.00000E+00     0.00
 -180.00    30.00    -999.99 -999.99 -999.99    0.00000     0.00            4.56991E-12    86.00    0.00000E+00     0.00
 -175.00    30.00     -21.57 -999.99  -21.57    0.00000     0.00  LINEAR    3.90491E-02  -141.56    0.00000E+00     0.00
 -170.00    30.00     -15.52 -999.99  -15.52    0.00000     0.00  LINEAR    7.83723E-02   171.77    0.00000E+00     0.00
 -165.00    30.00     -11.93 -999.99  -11.93    0.00000     0.00  LINEAR    1.18445E-01   125.83    0.00000E+00     0.00
 -160.00    30.00      -9.45 -999.99   -9.45    0.00000     0.00  LINEAR    1.57552E-01    80.69    0.00000E+00     0.00
 -155.00    30.00      -7.62 -999.99   -7.62    0.00000     0.00  LINEAR    1.94554E-01    37.06    0.00000E+00     0.00
 -150.00    30.00      -6.13 -999.99   -6.13    0.00000     0.00  LINEAR    2.31130E-01    -4.97    0.00000E+00     0.00
 -145.00    30.00      -4.85 -999.99   -4.85    0.00000     0.00  LINEAR    2.67720E-01   -45.55    0.00000E+00     0.00
 -140.00    30.00      -3.78 -999.99   -3.78    0.00000     0.00  LINEAR    3.02836E-01   -84.07    0.00000E+00     0.00
 -135.00    30.00      -2.86 -999.99   -2.86    0.00000     0.00  LINEAR    3.36510E-01  -119.66    0.00000E+00     0.00
 -130.00    30.00      -2.04 -999.99   -2.04    0.00000     0.00  LINEAR    3.69911E-01  -151.99    0.00000E+00     0.00
 -125.00    30.00      -1.31 -999.99   -1.31    0.00000     0.00  LINEAR    4.02469E-01   178.92    0.00000E+00     0.00
 -120.00    30.00      -0.70 -999.99   -0.70    0.00000     0.00  LINEAR    4.31890E-01   153.15    0.00000E+00     0.00
 -115.00    30.00      -0.22 -999.99   -0.22    0.00000     0.00  LINEAR    4.56361E-01   130.93    0.00000E+00     0.00
 -110.00    30.00       0.14 -999.99    0.14    0.00000     0.00  LINEAR    4.75531E-01   112.52    0.00000E+00     0.00
 -105.00    30.00       0.40 -999.99    0.40    0.00000     0.00  LINEAR    4.89891E-01    98.08    0.00000E+00     0.00
 -100.00    30.00       0.58 -999.99    0.58    0.00000     0.00  LINEAR    4.99958E-01    87.70    0.00000E+00     0.00
  -95.00    30.00       0.68 -999.99    0.68    0.00000     0.00  LINEAR    5.05971E-01    81.45    0.00000E+00     0.00
  -90.00    30.00       0.71 -999.99    0.71    0.00000     0.00  LINEAR    5.07977E-01    79.36    0.00000E+00     0.00
  -85.00    30.00       0.68 -999.99    0.68    0.00000     0.00  LINEAR    5.05971E-01    81.45    0.00000E+00     0.00
  -80.00    30.00       0.58 -999.99    0.58    0.00000     0.00  LINEAR    4.99958E-01    87.70    0.00000E+00     0.00
  -75.00    30.00       0.40 -999.99    0.40    0.00000     0.00  LINEAR    4.89891E-01    98.08    0.00000E+00     0.00
  -70.00    30.00       0.14 -999.99    0.14    0.00000     0.00  LINEAR    4.75531E-01   112.52    0.00000E+00     0.00
  -65.00    30.00      -0.22 -999.99   -0.22    0.00000     0.00  LINEAR    4.56361E-01   130.93    0.00000E+00     0.00
  -60.00    30.00      -0.70 -999.99   -0.70    0.00000     0.00  LINEAR    4.31890E-01   153.15    0.00000E+00     0.00
  -55.00    30.00      -1.31 -999.99   -1.31    0.00000     0.00  LINEAR    4.02469E-01   178.92    0.00000E+00     0.00
  -50.00    30.00      -2.04 -999.99   -2.04    0.00000     0.00  LINEAR    3.69911E-01  -151.99    0.00000E+00     0.00
  -45.00    30.00      -2.86 -999.99   -2.86    0.00000     0.00  LINEAR    3.36510E-01  -119.66    0.00000E+00     0.00
  -40.00    30.00      -3.78 -999.99   -3.78    0.00000     0.00  LINEAR    3.02836E-01   -84.07    0.00000E+00     0.00
  -35.00    30.00      -4.85 -999.99   -4.85    0.00000     0.00  LINEAR    2.67720E-01   -45.55    0.00000E+00     0.00
  -30.00    30.00      -6.13 -999.99   -6.13    0.00000     0.00  LINEAR    2.31130E-01    -4.97    0.00000E+00     0.00
  -25.00    30.00      -7.62 -999.99   -7.62    0.00000     0.00  LINEAR    1.94554E-01    37.06    0.00000E+00     0.00
  -20.00    30.00      -9.45 -999.99   -9.45    0.00000     0.00  LINEAR    1.57552E-01    80.69    0.00000E+00     0.00
  -15.00    30.00     -11.93 -999.99  -11.93    0.00000     0.00  LINEAR    1.18445E-01   125.83    0.00000E+00     0.00
  -10.00    30.00     -15.52 -999.99  -15.52    0.00000     0.00  LINEAR    7.83723E-02   171.77    0.00000E+00     0.00
   -5.00    30.00     -21.57 -999.99  -21.57    0.00000     0.00  LINEAR    3.90491E-02  -141.56    0.00000E+00     0.00
    0.00    30.00    -999.99 -999.99 -999.99    0.00000     0.00            0.00000E+00     0.00    0.00000E+00     0.00
 -180.00    35.00    -999.99 -999.99 -999.99    0.00000     0.00            4.56991E-12    86.00    0.00000E+00     0.00
 -175.00    35.00     -21.57 -999.99  -21.57    0.00000     0.00  LINEAR    3.90416E-02  -148.51    0.00000E+00     0.00
 -170.00    35.00     -15.51 -999.99  -15.51    0.00000     0.00  LINEAR    7.84960E-02   158.02    0.00000E+00     0.00
 -165.00    35.00     -11.94 -999.99  -11.94    0.00000     0.00  LINEAR    1.18324E-01   105.18    0.00000E+00     0.00
 -160.00    35.00      -9.54 -999.99   -9.54    0.00000     0.00  LINEAR    1.56006E-01    53.44    0.00000E+00     0.00
 -155.00    35.00      -7.72 -999.99   -7.72    0.00000     0.00  LINEAR    1.92285E-01     3.34    0.00000E+00     0.00
 -150.00    35.00      -6.22 -999.99   -6.22    0.00000     0.00  LINEAR    2.28748E-01   -45.53    0.00000E+00     0.00
 -145.00    35.00      -4.98 -999.99   -4.98    0.00000     0.00  LINEAR    2.63780E-01   -92.48    0.00000E+00     0.00
 -140.00    35.00      -3.92 -999.99   -3.92    0.00000     0.00  LINEAR    2.98048E-01  -136.25    0.00000E+00     0.00
 -135.00    35.00      -2.95 -999.99   -2.95    0.00000     0.00  LINEAR    3.33124E-01  -176.65    0.00000E+00     0.00
 -130.00    35.00      -2.13 -999.99   -2.13    0.00000     0.00  LINEAR    3.66183E-01   146.18    0.00000E+00     0.00
[...]
  -70.00   340.00       0.53 -999.99    0.53    0.00000     0.00  LINEAR    4.97567E-01  -109.45    0.00000E+00     0.00
  -65.00   340.00       0.13 -999.99    0.13    0.00000     0.00  LINEAR    4.75118E-01  -121.75    0.00000E+00     0.00
  -60.00   340.00      -0.37 -999.99   -0.37    0.00000     0.00  LINEAR    4.48567E-01  -136.61    0.00000E+00     0.00
  -55.00   340.00      -0.97 -999.99   -0.97    0.00000     0.00  LINEAR    4.18318E-01  -153.91    0.00000E+00     0.00
  -50.00   340.00      -1.69 -999.99   -1.69    0.00000     0.00  LINEAR    3.85036E-01  -173.40    0.00000E+00     0.00
  -45.00   340.00      -2.53 -999.99   -2.53    0.00000     0.00  LINEAR    3.49706E-01   165.12    0.00000E+00     0.00
  -40.00   340.00      -3.48 -999.99   -3.48    0.00000     0.00  LINEAR    3.13328E-01   141.83    0.00000E+00     0.00
  -35.00   340.00      -4.57 -999.99   -4.57    0.00000     0.00  LINEAR    2.76318E-01   116.79    0.00000E+00     0.00
  -30.00   340.00      -5.86 -999.99   -5.86    0.00000     0.00  LINEAR    2.38297E-01    90.02    0.00000E+00     0.00
  -25.00   340.00      -7.43 -999.99   -7.43    0.00000     0.00  LINEAR    1.98800E-01    61.70    0.00000E+00     0.00
  -20.00   340.00      -9.42 -999.99   -9.42    0.00000     0.00  LINEAR    1.58231E-01    32.16    0.00000E+00     0.00
  -15.00   340.00     -11.98 -999.99  -11.98    0.00000     0.00  LINEAR    1.17753E-01     1.74    0.00000E+00     0.00
  -10.00   340.00     -15.55 -999.99  -15.55    0.00000     0.00  LINEAR    7.81121E-02   -29.45    0.00000E+00     0.00
   -5.00   340.00     -21.57 -999.99  -21.57    0.00000     0.00  LINEAR    3.90362E-02   -61.44    0.00000E+00     0.00
    0.00   340.00    -999.99 -999.99 -999.99    0.00000     0.00            0.00000E+00     0.00    0.00000E+00     0.00
 -180.00   345.00    -999.99 -999.99 -999.99    0.00000     0.00            4.56991E-12    86.00    0.00000E+00     0.00
 -175.00   345.00     -21.57 -999.99  -21.57    0.00000     0.00  LINEAR    3.90572E-02   -69.34    0.00000E+00     0.00
 -170.00   345.00     -15.54 -999.99  -15.54    0.00000     0.00  LINEAR    7.81483E-02   -45.03    0.00000E+00     0.00
 -165.00   345.00     -12.00 -999.99  -12.00    0.00000     0.00  LINEAR    1.17548E-01   -21.31    0.00000E+00     0.00
 -160.00   345.00      -9.45 -999.99   -9.45    0.00000     0.00  LINEAR    1.57620E-01     1.73    0.00000E+00     0.00
 -155.00   345.00      -7.45 -999.99   -7.45    0.00000     0.00  LINEAR    1.98436E-01    24.01    0.00000E+00     0.00
 -150.00   345.00      -5.81 -999.99   -5.81    0.00000     0.00  LINEAR    2.39562E-01    45.45    0.00000E+00     0.00
 -145.00   345.00      -4.45 -999.99   -4.45    0.00000     0.00  LINEAR    2.80219E-01    65.85    0.00000E+00     0.00
 -140.00   345.00      -3.31 -999.99   -3.31    0.00000     0.00  LINEAR    3.19669E-01    85.01    0.00000E+00     0.00
 -135.00   345.00      -2.34 -999.99   -2.34    0.00000     0.00  LINEAR    3.57448E-01   102.75    0.00000E+00     0.00
 -130.00   345.00      -1.51 -999.99   -1.51    0.00000     0.00  LINEAR    3.93321E-01   118.93    0.00000E+00     0.00
 -125.00   345.00      -0.79 -999.99   -0.79    0.00000     0.00  LINEAR    4.27058E-01   133.47    0.00000E+00     0.00
 -120.00   345.00      -0.18 -999.99   -0.18    0.00000     0.00  LINEAR    4.58262E-01   146.28    0.00000E+00     0.00
 -115.00   345.00       0.34 -999.99    0.34    0.00000     0.00  LINEAR    4.86331E-01   157.31    0.00000E+00     0.00
 -110.00   345.00       0.76 -999.99    0.76    0.00000     0.00  LINEAR    5.10551E-01   166.47    0.00000E+00     0.00
 -105.00   345.00       1.09 -999.99    1.09    0.00000     0.00  LINEAR    5.30214E-01   173.68    0.00000E+00     0.00
 -100.00   345.00       1.32 -999.99    1.32    0.00000     0.00  LINEAR    5.44714E-01   178.89    0.00000E+00     0.00
  -95.00   345.00       1.46 -999.99    1.46    0.00000     0.00  LINEAR    5.53599E-01  -177.97    0.00000E+00     0.00
  -90.00   345.00       1.51 -999.99    1.51    0.00000     0.00  LINEAR    5.56591E-01  -176.92    0.00000E+00     0.00
  -85.00   345.00       1.46 -999.99    1.46    0.00000     0.00  LINEAR    5.53599E-01  -177.97    0.00000E+00     0.00
  -80.00   345.00       1.32 -999.99    1.32    0.00000     0.00  LINEAR    5.44714E-01   178.89    0.00000E+00     0.00
  -75.00   345.00       1.09 -999.99    1.09    0.00000     0.00  LINEAR    5.30214E-01   173.68    0.00000E+00     0.00
  -70.00   345.00       0.76 -999.99    0.76    0.00000     0.00  LINEAR    5.10551E-01   166.47    0.00000E+00     0.00
  -65.00   345.00       0.34 -999.99    0.34    0.00000     0.00  LINEAR    4.86331E-01   157.31    0.00000E+00     0.00
  -60.00   345.00      -0.18 -999.99   -0.18    0.00000     0.00  LINEAR    4.58262E-01   146.28    0.00000E+00     0.00
  -55.00   345.00      -0.79 -999.99   -0.79    0.00000     0.00  LINEAR    4.27058E-01   133.47    0.00000E+00     0.00
  -50.00   345.00      -1.51 -999.99   -1.51    0.00000     0.00  LINEAR    3.93321E-01   118.93    0.00000E+00     0.00
  -45.00   345.00      -2.34 -999.99   -2.34    0.00000     0.00  LINEAR    3.57448E-01   102.75    0.00000E+00     0.00
  -40.00   345.00      -3.31 -999.99   -3.31    0.00000     0.00  LINEAR    3.19669E-01    85.01    0.00000E+00     0.00
  -35.00   345.00      -4.45 -999.99   -4.45    0.00000     0.00  LINEAR    2.80219E-01    65.85    0.00000E+00     0.00
  -30.00   345.00      -5.81 -999.99   -5.81    0.00000     0.00  LINEAR    2.39562E-01    45.45    0.00000E+00     0.00
  -25.00   345.00      -7.45 -999.99   -7.45    0.00000     0.00  LINEAR    1.98436E-01    24.01    0.00000E+00     0.00
  -20.00   345.00      -9.45 -999.99   -9.45    0.00000     0.00  LINEAR    1.57620E-01     1.73    0.00000E+00     0.00
  -15.00   345.00     -12.00 -999.99  -12.00    0.00000     0.00  LINEAR    1.17548E-01   -21.31    0.00000E+00     0.00
  -10.00   345.00     -15.54 -999.99  -15.54    0.00000     0.00  LINEAR    7.81483E-02   -45.03    0.00000E+00     0.00
   -5.00   345.00     -21.57 -999.99  -21.57    0.00000     0.00  LINEAR    3.90572E-02   -69.34    0.00000E+00     0.00
    0.00   345.00    -999.99 -999.99 -999.99    0.00000     0.00            0.00000E+00     0.00    0.00000E+00     0.00
 -180.00   350.00    -999.99 -999.99 -999.99    0.00000     0.00            4.56991E-12    86.00    0.00000E+00     0.00
 -175.00   350.00     -21.56 -999.99  -21.56    0.00000     0.00  LINEAR    3.90762E-02   -77.44    0.00000E+00     0.00
 -170.00   350.00     -15.54 -999.99  -15.54    0.00000     0.00  LINEAR    7.82283E-02   -61.07    0.00000E+00     0.00
 -165.00   350.00     -12.00 -999.99  -12.00    0.00000     0.00  LINEAR    1.17591E-01   -45.04    0.00000E+00     0.00
 -160.00   350.00      -9.47 -999.99   -9.47    0.00000     0.00  LINEAR    1.57329E-01   -29.48    0.00000E+00     0.00
 -155.00   350.00      -7.49 -999.99   -7.49    0.00000     0.00  LINEAR    1.97577E-01   -14.48    0.00000E+00     0.00
 -150.00   350.00      -5.86 -999.99   -5.86    0.00000     0.00  LINEAR    2.38338E-01    -0.13    0.00000E+00     0.00
 -145.00   350.00      -4.48 -999.99   -4.48    0.00000     0.00  LINEAR    2.79416E-01    13.51    0.00000E+00     0.00
 -140.00   350.00      -3.29 -999.99   -3.29    0.00000     0.00  LINEAR    3.20389E-01    26.34    0.00000E+00     0.00
 -135.00   350.00      -2.26 -999.99   -2.26    0.00000     0.00  LINEAR    3.60647E-01    38.28    0.00000E+00     0.00
 -130.00   350.00      -1.37 -999.99   -1.37    0.00000     0.00  LINEAR    3.99469E-01    49.23    0.00000E+00     0.00
 -125.00   350.00      -0.61 -999.99   -0.61    0.00000     0.00  LINEAR    4.36086E-01    59.10    0.00000E+00     0.00
 -120.00   350.00       0.03 -999.99    0.03    0.00000     0.00  LINEAR    4.69734E-01    67.81    0.00000E+00     0.00
 -115.00   350.00       0.57 -999.99    0.57    0.00000     0.00  LINEAR    4.99687E-01    75.29    0.00000E+00     0.00
 -110.00   350.00       1.00 -999.99    1.00    0.00000     0.00  LINEAR    5.25270E-01    81.48    0.00000E+00     0.00
 -105.00   350.00       1.34 -999.99    1.34    0.00000     0.00  LINEAR    5.45877E-01    86.34    0.00000E+00     0.00
 -100.00   350.00       1.58 -999.99    1.58    0.00000     0.00  LINEAR    5.60997E-01    89.84    0.00000E+00     0.00
  -95.00   350.00       1.72 -999.99    1.72    0.00000     0.00  LINEAR    5.70235E-01    91.94    0.00000E+00     0.00
  -90.00   350.00       1.77 -999.99    1.77    0.00000     0.00  LINEAR    5.73343E-01    92.64    0.00000E+00     0.00
  -85.00   350.00       1.72 -999.99    1.72    0.00000     0.00  LINEAR    5.70235E-01    91.94    0.00000E+00     0.00
  -80.00   350.00       1.58 -999.99    1.58    0.00000     0.00  LINEAR    5.60997E-01    89.84    0.00000E+00     0.00
  -75.00   350.00       1.34 -999.99    1.34    0.00000     0.00  LINEAR    5.45877E-01    86.34    0.00000E+00     0.00
  -70.00   350.00       1.00 -999.99    1.00    0.00000     0.00  LINEAR    5.25270E-01    81.48    0.00000E+00     0.00
  -65.00   350.00       0.57 -999.99    0.57    0.00000     0.00  LINEAR    4.99687E-01    75.29    0.00000E+00     0.00
  -60.00   350.00       0.03 -999.99    0.03    0.00000     0.00  LINEAR    4.69734E-01    67.81    0.00000E+00     0.00
  -55.00   350.00      -0.61 -999.99   -0.61    0.00000     0.00  LINEAR    4.36086E-01    59.10    0.00000E+00     0.00
  -50.00   350.00      -1.37 -999.99   -1.37    0.00000     0.00  LINEAR    3.99469E-01    49.23    0.00000E+00     0.00
  -45.00   350.00      -2.26 -999.99   -2.26    0.00000     0.00  LINEAR    3.60647E-01    38.28    0.00000E+00     0.00
  -40.00   350.00      -3.29 -999.99   -3.29    0.00000     0.00  LINEAR    3.20389E-01    26.34    0.00000E+00     0.00
  -35.00   350.00      -4.48 -999.99   -4.48    0.00000     0.00  LINEAR    2.79416E-01    13.51    0.00000E+00     0.00
  -30.00   350.00      -5.86 -999.99   -5.86    0.00000     0.00  LINEAR    2.38338E-01    -0.13    0.00000E+00     0.00
  -25.00   350.00      -7.49 -999.99   -7.49    0.00000     0.00  LINEAR    1.97577E-01   -14.48    0.00000E+00     0.00
  -20.00   350.00      -9.47 -999.99   -9.47    0.00000     0.00  LINEAR    1.57329E-01   -29.48    0.00000E+00     0.00
  -15.00   350.00     -12.00 -999.99  -12.00    0.00000     0.00  LINEAR    1.17591E-01   -45.04    0.00000E+00     0.00
  -10.00   350.00     -15.54 -999.99  -15.54    0.00000     0.00  LINEAR    7.82283E-02   -61.07    0.00000E+00     0.00
   -5.00   350.00     -21.56 -999.99  -21.56    0.00000     0.00  LINEAR    3.90762E-02   -77.44    0.00000E+00     0.00
    0.00   350.00    -999.99 -999.99 -999.99    0.00000     0.00            0.00000E+00     0.00    0.00000E+00     0.00
 -180.00   355.00    -999.99 -999.99 -999.99    0.00000     0.00            4.56991E-12    86.00    0.00000E+00     0.00
 -175.00   355.00     -21.56 -999.99  -21.56    0.00000     0.00  LINEAR    3.90908E-02   -85.68    0.00000E+00     0.00
 -170.00   355.00     -15.53 -999.99  -15.53    0.00000     0.00  LINEAR    7.83106E-02   -77.45    0.00000E+00     0.00
 -165.00   355.00     -11.98 -999.99  -11.98    0.00000     0.00  LINEAR    1.17778E-01   -69.35    0.00000E+00     0.00
 -160.00   355.00      -9.45 -999.99   -9.45    0.00000     0.00  LINEAR    1.57567E-01   -61.47    0.00000E+00     0.00
 -155.00   355.00      -7.48 -999.99   -7.48    0.00000     0.00  LINEAR    1.97692E-01   -53.86    0.00000E+00     0.00
 -150.00   355.00      -5.87 -999.99   -5.87    0.00000     0.00  LINEAR    2.38076E-01   -46.57    0.00000E+00     0.00
 -145.00   355.00      -4.51 -999.99   -4.51    0.00000     0.00  LINEAR    2.78539E-01   -39.67    0.00000E+00     0.00
 -140.00   355.00      -3.33 -999.99   -3.33    0.00000     0.00  LINEAR    3.18780E-01   -33.19    0.00000E+00     0.00
 -135.00   355.00      -2.32 -999.99   -2.32    0.00000     0.00  LINEAR    3.58370E-01   -27.18    0.00000E+00     0.00
 -130.00   355.00      -1.43 -999.99   -1.43    0.00000     0.00  LINEAR    3.96755E-01   -21.69    0.00000E+00     0.00
 -125.00   355.00      -0.67 -999.99   -0.67    0.00000     0.00  LINEAR    4.33268E-01   -16.75    0.00000E+00     0.00
 -120.00   355.00      -0.01 -999.99   -0.01    0.00000     0.00  LINEAR    4.67164E-01   -12.40    0.00000E+00     0.00
 -115.00   355.00       0.54 -999.99    0.54    0.00000     0.00  LINEAR    4.97647E-01    -8.66    0.00000E+00     0.00
 -110.00   355.00       0.98 -999.99    0.98    0.00000     0.00  LINEAR    5.23923E-01    -5.56    0.00000E+00     0.00
 -105.00   355.00       1.33 -999.99    1.33    0.00000     0.00  LINEAR    5.45251E-01    -3.13    0.00000E+00     0.00
 -100.00   355.00       1.58 -999.99    1.58    0.00000     0.00  LINEAR    5.60988E-01    -1.38    0.00000E+00     0.00
  -95.00   355.00       1.72 -999.99    1.72    0.00000     0.00  LINEAR    5.70639E-01    -0.32    0.00000E+00     0.00
  -90.00   355.00       1.77 -999.99    1.77    0.00000     0.00  LINEAR    5.73892E-01     0.03    0.00000E+00     0.00
  -85.00   355.00       1.72 -999.99    1.72    0.00000     0.00  LINEAR    5.70639E-01    -0.32    0.00000E+00     0.00
  -80.00   355.00       1.58 -999.99    1.58    0.00000     0.00  LINEAR    5.60988E-01    -1.38    0.00000E+00     0.00
  -75.00   355.00       1.33 -999.99    1.33    0.00000     0.00  LINEAR    5.45251E-01    -3.13    0.00000E+00     0.00
  -70.00   355.00       0.98 -999.99    0.98    0.00000     0.00  LINEAR    5.23923E-01    -5.56    0.00000E+00     0.00
  -65.00   355.00       0.54 -999.99    0.54    0.00000     0.00  LINEAR    4.97647E-01    -8.66    0.00000E+00     0.00
  -60.00   355.00      -0.01 -999.99   -0.01    0.00000     0.00  LINEAR    4.67164E-01   -12.40    0.00000E+00     0.00
  -55.00   355.00      -0.67 -999.99   -0.67    0.00000     0.00  LINEAR    4.33268E-01   -16.75    0.00000E+00     0.00
  -50.00   355.00      -1.43 -999.99   -1.43    0.00000     0.00  LINEAR    3.96755E-01   -21.69    0.00000E+00     0.00
  -45.00   355.00      -2.32 -999.99   -2.32    0.00000     0.00  LINEAR    3.58370E-01   -27.18    0.00000E+00     0.00
  -40.00   355.00      -3.33 -999.99   -3.33    0.00000     0.00  LINEAR    3.18780E-01   -33.19    0.00000E+00     0.00
  -35.00   355.00      -4.51 -999.99   -4.51    0.00000     0.00  LINEAR    2.78539E-01   -39.67    0.00000E+00     0.00
  -30.00   355.00      -5.87 -999.99   -5.87    0.00000     0.00  LINEAR    2.38076E-01   -46.57    0.00000E+00     0.00
  -25.00   355.00      -7.48 -999.99   -7.48    0.00000     0.00  LINEAR    1.97692E-01   -53.86    0.00000E+00     0.00
  -20.00   355.00      -9.45 -999.99   -9.45    0.00000     0.00  LINEAR    1.57567E-01   -61.47    0.00000E+00     0.00
  -15.00   355.00     -11.98 -999.99  -11.98    0.00000     0.00  LINEAR    1.17778E-01   -69.35    0.00000E+00     0.00
  -10.00   355.00     -15.53 -999.99  -15.53    0.00000     0.00  LINEAR    7.83106E-02   -77.45    0.00000E+00     0.00
   -5.00   355.00     -21.56 -999.99  -21.56    0.00000     0.00  LINEAR    3.90908E-02   -85.68    0.00000E+00     0.00
    0.00   355.00    -999.99 -999.99 -999.99    0.00000     0.00            0.00000E+00     0.00    0.00000E+00     0.00
 -180.00   360.00    -999.99 -999.99 -999.99    0.00000     0.00            4.56991E-12    86.00    0.00000E+00     0.00
 -175.00   360.00     -21.56 -999.99  -21.56    0.00000     0.00  LINEAR    3.90992E-02   -94.00    0.00000E+00     0.00
 -170.00   360.00     -15.52 -999.99  -15.52    0.00000     0.00  LINEAR    7.83566E-02   -94.01    0.00000E+00     0.00
 -165.00   360.00     -11.97 -999.99  -11.97    0.00000     0.00  LINEAR    1.17904E-01   -94.02    0.00000E+00     0.00
 -160.00   360.00      -9.44 -999.99   -9.44    0.00000     0.00  LINEAR    1.57823E-01   -94.03    0.00000E+00     0.00
 -155.00   360.00      -7.46 -999.99   -7.46    0.00000     0.00  LINEAR    1.98117E-01   -94.05    0.00000E+00     0.00
 -150.00   360.00      -5.85 -999.99   -5.85    0.00000     0.00  LINEAR    2.38696E-01   -94.07    0.00000E+00     0.00
 -145.00   360.00      -4.48 -999.99   -4.48    0.00000     0.00  LINEAR    2.79357E-01   -94.09    0.00000E+00     0.00
 -140.00   360.00      -3.31 -999.99   -3.31    0.00000     0.00  LINEAR    3.19776E-01   -94.12    0.00000E+00     0.00
 -135.00   360.00      -2.29 -999.99   -2.29    0.00000     0.00  LINEAR    3.59503E-01   -94.14    0.00000E+00     0.00
 -130.00   360.00      -1.41 -999.99   -1.41    0.00000     0.00  LINEAR    3.97973E-01   -94.16    0.00000E+00     0.00
 -125.00   360.00      -0.64 -999.99   -0.64    0.00000     0.00  LINEAR    4.34516E-01   -94.18    0.00000E+00     0.00
 -120.00   360.00       0.01 -999.99    0.01    0.00000     0.00  LINEAR    4.68389E-01   -94.20    0.00000E+00     0.00
 -115.00   360.00       0.56 -999.99    0.56    0.00000     0.00  LINEAR    4.98811E-01   -94.22    0.00000E+00     0.00
 -110.00   360.00       1.00 -999.99    1.00    0.00000     0.00  LINEAR    5.25006E-01   -94.24    0.00000E+00     0.00
 -105.00   360.00       1.34 -999.99    1.34    0.00000     0.00  LINEAR    5.46247E-01   -94.25    0.00000E+00     0.00
 -100.00   360.00       1.59 -999.99    1.59    0.00000     0.00  LINEAR    5.61909E-01   -94.26    0.00000E+00     0.00
  -95.00   360.00       1.74 -999.99    1.74    0.00000     0.00  LINEAR    5.71509E-01   -94.26    0.00000E+00     0.00
  -90.00   360.00       1.79 -999.99    1.79    0.00000     0.00  LINEAR    5.74744E-01   -94.27    0.00000E+00     0.00
  -85.00   360.00       1.74 -999.99    1.74    0.00000     0.00  LINEAR    5.71509E-01   -94.26    0.00000E+00     0.00
  -80.00   360.00       1.59 -999.99    1.59    0.00000     0.00  LINEAR    5.61909E-01   -94.26    0.00000E+00     0.00
  -75.00   360.00       1.34 -999.99    1.34    0.00000     0.00  LINEAR    5.46247E-01   -94.25    0.00000E+00     0.00
  -70.00   360.00       1.00 -999.99    1.00    0.00000     0.00  LINEAR    5.25006E-01   -94.24    0.00000E+00     0.00
  -65.00   360.00       0.56 -999.99    0.56    0.00000     0.00  LINEAR    4.98811E-01   -94.22    0.00000E+00     0.00
  -60.00   360.00       0.01 -999.99    0.01    0.00000     0.00  LINEAR    4.68389E-01   -94.20    0.00000E+00     0.00
  -55.00   360.00      -0.64 -999.99   -0.64    0.00000     0.00  LINEAR    4.34516E-01   -94.18    0.00000E+00     0.00
  -50.00   360.00      -1.41 -999.99   -1.41    0.00000     0.00  LINEAR    3.97973E-01   -94.16    0.00000E+00     0.00
  -45.00   360.00      -2.29 -999.99   -2.29    0.00000     0.00  LINEAR    3.59503E-01   -94.14    0.00000E+00     0.00
  -40.00   360.00      -3.31 -999.99   -3.31    0.00000     0.00  LINEAR    3.19776E-01   -94.12    0.00000E+00     0.00
  -35.00   360.00      -4.48 -999.99   -4.48    0.00000     0.00  LINEAR    2.79357E-01   -94.09    0.00000E+00     0.00
  -30.00   360.00      -5.85 -999.99   -5.85    0.00000     0.00  LINEAR    2.38696E-01   -94.07    0.00000E+00     0.00
  -25.00   360.00      -7.46 -999.99   -7.46    0.00000     0.00  LINEAR    1.98117E-01   -94.05    0.00000E+00     0.00
  -20.00   360.00      -9.44 -999.99   -9.44    0.00000     0.00  LINEAR    1.57823E-01   -94.03    0.00000E+00     0.00
  -15.00   360.00     -11.97 -999.99  -11.97    0.00000     0.00  LINEAR    1.17904E-01   -94.02    0.00000E+00     0.00
  -10.00   360.00     -15.52 -999.99  -15.52    0.00000     0.00  LINEAR    7.83566E-02   -94.01    0.00000E+00     0.00
   -5.00   360.00     -21.56 -999.99  -21.56    0.00000     0.00  LINEAR    3.90992E-02   -94.00    0.00000E+00     0.00
    0.00   360.00    -999.99 -999.99 -999.99    0.00000     0.00            0.00000E+00     0.00    0.00000E+00     0.00


   AVERAGE POWER GAIN= 5.81699E-01       SOLID ANGLE USED IN AVERAGING=( 4.0000)*PI STERADIANS.








 ***** DATA CARD NO. 26   EN   0    37    73  1003 -1.80000E+02  0.00000E+00  5.00000E+00  5.00000E+00  0.00000E+00  0.00000E+00

 RUN TIME =     0.328
