1



                                 *********************************************

                                    NUMERICAL ELECTROMAGNETICS CODE (NEC-2D)

                                 *********************************************




                                     - - - - COMMENTS - - - -


                                                                                                     
                          forw:-999, 0 ; back: 0, 0                                                  
                                                                                                     




                                 - - - STRUCTURE SPECIFICATION - - -

                                     COORDINATES MUST BE INPUT IN
                                     METERS OR BE SCALED TO METERS
                                     BEFORE STRUCTURE INPUT IS ENDED


  WIRE                                                                               NO. OF    FIRST  LAST     TAG
  NO.        X1         Y1         Z1          X2         Y2         Z2      RADIUS   SEG.     SEG.   SEG.     NO.
     1    0.00000    0.00000   -0.17430     0.00000    0.00000    0.17430    0.00010      9        1     9       1
     2    0.00000    0.34860   -0.17430     0.00000    0.34860    0.17430    0.00010      9       10    18       2
     3    0.00000    0.69719   -0.17430     0.00000    0.69719    0.17430    0.00010      9       19    27       3
     4    0.00000    1.04579   -0.17430     0.00000    1.04579    0.17430    0.00010      9       28    36       4
     5    0.00000    1.39438   -0.17430     0.00000    1.39438    0.17430    0.00010      9       37    45       5
     6    0.00000    1.74298   -0.17430     0.00000    1.74298    0.17430    0.00010      9       46    54       6
     7    0.00000    2.09158   -0.17430     0.00000    2.09158    0.17430    0.00010      9       55    63       7
     8    0.00000    2.44017   -0.17430     0.00000    2.44017    0.17430    0.00010      9       64    72       8
     9    0.00000    2.78877   -0.17430     0.00000    2.78877    0.17430    0.00010      9       73    81       9
    10    0.00000    3.13736   -0.17430     0.00000    3.13736    0.17430    0.00010      9       82    90      10
    11    0.00000    3.48596   -0.17430     0.00000    3.48596    0.17430    0.00010      9       91    99      11
    12    0.00000    3.83455   -0.17430     0.00000    3.83455    0.17430    0.00010      9      100   108      12
    13    0.00000    4.18315   -0.17430     0.00000    4.18315    0.17430    0.00010      9      109   117      13
    14    0.00000    4.53175   -0.17430     0.00000    4.53175    0.17430    0.00010      9      118   126      14
    15    0.00000    4.88034   -0.17430     0.00000    4.88034    0.17430    0.00010      9      127   135      15
    16    0.00000    5.22894   -0.17430     0.00000    5.22894    0.17430    0.00010      9      136   144      16
    17    0.00000    5.57753   -0.17430     0.00000    5.57753    0.17430    0.00010      9      145   153      17
    18    0.00000    5.92613   -0.17430     0.00000    5.92613    0.17430    0.00010      9      154   162      18
    19    0.00000    6.27473   -0.17430     0.00000    6.27473    0.17430    0.00010      9      163   171      19
    20    0.00000    6.62332   -0.17430     0.00000    6.62332    0.17430    0.00010      9      172   180      20

   TOTAL SEGMENTS USED=  180     NO. SEG. IN A SYMMETRIC CELL=  180     SYMMETRY FLAG=  0


         - MULTIPLE WIRE JUNCTIONS -
 JUNCTION    SEGMENTS  (- FOR END 1, + FOR END 2)
  NONE




                                 - - - - SEGMENTATION DATA - - - -

                                        COORDINATES IN METERS

                         I+ AND I- INDICATE THE SEGMENTS BEFORE AND AFTER I


  SEG.   COORDINATES OF SEG. CENTER     SEG.     ORIENTATION ANGLES    WIRE    CONNECTION DATA   TAG
  NO.       X         Y         Z       LENGTH     ALPHA     BETA      RADIUS    I-   I    I+    NO.
     1   0.00000   0.00000  -0.15493   0.03873   90.00000   0.00000   0.00010     0    1    2      1
     2   0.00000   0.00000  -0.11620   0.03873   90.00000   0.00000   0.00010     1    2    3      1
     3   0.00000   0.00000  -0.07747   0.03873   90.00000   0.00000   0.00010     2    3    4      1
     4   0.00000   0.00000  -0.03873   0.03873   90.00000   0.00000   0.00010     3    4    5      1
     5   0.00000   0.00000   0.00000   0.03873   90.00000   0.00000   0.00010     4    5    6      1
     6   0.00000   0.00000   0.03873   0.03873   90.00000   0.00000   0.00010     5    6    7      1
     7   0.00000   0.00000   0.07747   0.03873   90.00000   0.00000   0.00010     6    7    8      1
     8   0.00000   0.00000   0.11620   0.03873   90.00000   0.00000   0.00010     7    8    9      1
     9   0.00000   0.00000   0.15493   0.03873   90.00000   0.00000   0.00010     8    9    0      1
    10   0.00000   0.34860  -0.15493   0.03873   90.00000   0.00000   0.00010     0   10   11      2
    11   0.00000   0.34860  -0.11620   0.03873   90.00000   0.00000   0.00010    10   11   12      2
    12   0.00000   0.34860  -0.07747   0.03873   90.00000   0.00000   0.00010    11   12   13      2
    13   0.00000   0.34860  -0.03873   0.03873   90.00000   0.00000   0.00010    12   13   14      2
    14   0.00000   0.34860   0.00000   0.03873   90.00000   0.00000   0.00010    13   14   15      2
    15   0.00000   0.34860   0.03873   0.03873   90.00000   0.00000   0.00010    14   15   16      2
    16   0.00000   0.34860   0.07747   0.03873   90.00000   0.00000   0.00010    15   16   17      2
    17   0.00000   0.34860   0.11620   0.03873   90.00000   0.00000   0.00010    16   17   18      2
    18   0.00000   0.34860   0.15493   0.03873   90.00000   0.00000   0.00010    17   18    0      2
    19   0.00000   0.69719  -0.15493   0.03873   90.00000   0.00000   0.00010     0   19   20      3
    20   0.00000   0.69719  -0.11620   0.03873   90.00000   0.00000   0.00010    19   20   21      3
    21   0.00000   0.69719  -0.07747   0.03873   90.00000   0.00000   0.00010    20   21   22      3
    22   0.00000   0.69719  -0.03873   0.03873   90.00000   0.00000   0.00010    21   22   23      3
    23   0.00000   0.69719   0.00000   0.03873   90.00000   0.00000   0.00010    22   23   24      3
    24   0.00000   0.69719   0.03873   0.03873   90.00000   0.00000   0.00010    23   24   25      3
    25   0.00000   0.69719   0.07747   0.03873   90.00000   0.00000   0.00010    24   25   26      3
    26   0.00000   0.69719   0.11620   0.03873   90.00000   0.00000   0.00010    25   26   27      3
    27   0.00000   0.69719   0.15493   0.03873   90.00000   0.00000   0.00010    26   27    0      3
    28   0.00000   1.04579  -0.15493   0.03873   90.00000   0.00000   0.00010     0   28   29      4
    29   0.00000   1.04579  -0.11620   0.03873   90.00000   0.00000   0.00010    28   29   30      4
    30   0.00000   1.04579  -0.07747   0.03873   90.00000   0.00000   0.00010    29   30   31      4
    31   0.00000   1.04579  -0.03873   0.03873   90.00000   0.00000   0.00010    30   31   32      4
    32   0.00000   1.04579   0.00000   0.03873   90.00000   0.00000   0.00010    31   32   33      4
    33   0.00000   1.04579   0.03873   0.03873   90.00000   0.00000   0.00010    32   33   34      4
    34   0.00000   1.04579   0.07747   0.03873   90.00000   0.00000   0.00010    33   34   35      4
    35   0.00000   1.04579   0.11620   0.03873   90.00000   0.00000   0.00010    34   35   36      4
    36   0.00000   1.04579   0.15493   0.03873   90.00000   0.00000   0.00010    35   36    0      4
    37   0.00000   1.39438  -0.15493   0.03873   90.00000   0.00000   0.00010     0   37   38      5
    38   0.00000   1.39438  -0.11620   0.03873   90.00000   0.00000   0.00010    37   38   39      5
    39   0.00000   1.39438  -0.07747   0.03873   90.00000   0.00000   0.00010    38   39   40      5
    40   0.00000   1.39438  -0.03873   0.03873   90.00000   0.00000   0.00010    39   40   41      5
    41   0.00000   1.39438   0.00000   0.03873   90.00000   0.00000   0.00010    40   41   42      5
    42   0.00000   1.39438   0.03873   0.03873   90.00000   0.00000   0.00010    41   42   43      5
    43   0.00000   1.39438   0.07747   0.03873   90.00000   0.00000   0.00010    42   43   44      5
    44   0.00000   1.39438   0.11620   0.03873   90.00000   0.00000   0.00010    43   44   45      5
    45   0.00000   1.39438   0.15493   0.03873   90.00000   0.00000   0.00010    44   45    0      5
    46   0.00000   1.74298  -0.15493   0.03873   90.00000   0.00000   0.00010     0   46   47      6
    47   0.00000   1.74298  -0.11620   0.03873   90.00000   0.00000   0.00010    46   47   48      6
    48   0.00000   1.74298  -0.07747   0.03873   90.00000   0.00000   0.00010    47   48   49      6
    49   0.00000   1.74298  -0.03873   0.03873   90.00000   0.00000   0.00010    48   49   50      6
    50   0.00000   1.74298   0.00000   0.03873   90.00000   0.00000   0.00010    49   50   51      6
    51   0.00000   1.74298   0.03873   0.03873   90.00000   0.00000   0.00010    50   51   52      6
    52   0.00000   1.74298   0.07747   0.03873   90.00000   0.00000   0.00010    51   52   53      6
    53   0.00000   1.74298   0.11620   0.03873   90.00000   0.00000   0.00010    52   53   54      6
    54   0.00000   1.74298   0.15493   0.03873   90.00000   0.00000   0.00010    53   54    0      6
    55   0.00000   2.09158  -0.15493   0.03873   90.00000   0.00000   0.00010     0   55   56      7
    56   0.00000   2.09158  -0.11620   0.03873   90.00000   0.00000   0.00010    55   56   57      7
    57   0.00000   2.09158  -0.07747   0.03873   90.00000   0.00000   0.00010    56   57   58      7
    58   0.00000   2.09158  -0.03873   0.03873   90.00000   0.00000   0.00010    57   58   59      7
    59   0.00000   2.09158   0.00000   0.03873   90.00000   0.00000   0.00010    58   59   60      7
    60   0.00000   2.09158   0.03873   0.03873   90.00000   0.00000   0.00010    59   60   61      7
    61   0.00000   2.09158   0.07747   0.03873   90.00000   0.00000   0.00010    60   61   62      7
    62   0.00000   2.09158   0.11620   0.03873   90.00000   0.00000   0.00010    61   62   63      7
    63   0.00000   2.09158   0.15493   0.03873   90.00000   0.00000   0.00010    62   63    0      7
    64   0.00000   2.44017  -0.15493   0.03873   90.00000   0.00000   0.00010     0   64   65      8
    65   0.00000   2.44017  -0.11620   0.03873   90.00000   0.00000   0.00010    64   65   66      8
    66   0.00000   2.44017  -0.07747   0.03873   90.00000   0.00000   0.00010    65   66   67      8
    67   0.00000   2.44017  -0.03873   0.03873   90.00000   0.00000   0.00010    66   67   68      8
    68   0.00000   2.44017   0.00000   0.03873   90.00000   0.00000   0.00010    67   68   69      8
    69   0.00000   2.44017   0.03873   0.03873   90.00000   0.00000   0.00010    68   69   70      8
    70   0.00000   2.44017   0.07747   0.03873   90.00000   0.00000   0.00010    69   70   71      8
    71   0.00000   2.44017   0.11620   0.03873   90.00000   0.00000   0.00010    70   71   72      8
    72   0.00000   2.44017   0.15493   0.03873   90.00000   0.00000   0.00010    71   72    0      8
    73   0.00000   2.78877  -0.15493   0.03873   90.00000   0.00000   0.00010     0   73   74      9
    74   0.00000   2.78877  -0.11620   0.03873   90.00000   0.00000   0.00010    73   74   75      9
    75   0.00000   2.78877  -0.07747   0.03873   90.00000   0.00000   0.00010    74   75   76      9
    76   0.00000   2.78877  -0.03873   0.03873   90.00000   0.00000   0.00010    75   76   77      9
    77   0.00000   2.78877   0.00000   0.03873   90.00000   0.00000   0.00010    76   77   78      9
    78   0.00000   2.78877   0.03873   0.03873   90.00000   0.00000   0.00010    77   78   79      9
    79   0.00000   2.78877   0.07747   0.03873   90.00000   0.00000   0.00010    78   79   80      9
    80   0.00000   2.78877   0.11620   0.03873   90.00000   0.00000   0.00010    79   80   81      9
    81   0.00000   2.78877   0.15493   0.03873   90.00000   0.00000   0.00010    80   81    0      9
    82   0.00000   3.13736  -0.15493   0.03873   90.00000   0.00000   0.00010     0   82   83     10
    83   0.00000   3.13736  -0.11620   0.03873   90.00000   0.00000   0.00010    82   83   84     10
    84   0.00000   3.13736  -0.07747   0.03873   90.00000   0.00000   0.00010    83   84   85     10
    85   0.00000   3.13736  -0.03873   0.03873   90.00000   0.00000   0.00010    84   85   86     10
    86   0.00000   3.13736   0.00000   0.03873   90.00000   0.00000   0.00010    85   86   87     10
    87   0.00000   3.13736   0.03873   0.03873   90.00000   0.00000   0.00010    86   87   88     10
    88   0.00000   3.13736   0.07747   0.03873   90.00000   0.00000   0.00010    87   88   89     10
    89   0.00000   3.13736   0.11620   0.03873   90.00000   0.00000   0.00010    88   89   90     10
    90   0.00000   3.13736   0.15493   0.03873   90.00000   0.00000   0.00010    89   90    0     10
    91   0.00000   3.48596  -0.15493   0.03873   90.00000   0.00000   0.00010     0   91   92     11
    92   0.00000   3.48596  -0.11620   0.03873   90.00000   0.00000   0.00010    91   92   93     11
    93   0.00000   3.48596  -0.07747   0.03873   90.00000   0.00000   0.00010    92   93   94     11
    94   0.00000   3.48596  -0.03873   0.03873   90.00000   0.00000   0.00010    93   94   95     11
    95   0.00000   3.48596   0.00000   0.03873   90.00000   0.00000   0.00010    94   95   96     11
    96   0.00000   3.48596   0.03873   0.03873   90.00000   0.00000   0.00010    95   96   97     11
    97   0.00000   3.48596   0.07747   0.03873   90.00000   0.00000   0.00010    96   97   98     11
    98   0.00000   3.48596   0.11620   0.03873   90.00000   0.00000   0.00010    97   98   99     11
    99   0.00000   3.48596   0.15493   0.03873   90.00000   0.00000   0.00010    98   99    0     11
   100   0.00000   3.83455  -0.15493   0.03873   90.00000   0.00000   0.00010     0  100  101     12
   101   0.00000   3.83455  -0.11620   0.03873   90.00000   0.00000   0.00010   100  101  102     12
   102   0.00000   3.83455  -0.07747   0.03873   90.00000   0.00000   0.00010   101  102  103     12
   103   0.00000   3.83455  -0.03873   0.03873   90.00000   0.00000   0.00010   102  103  104     12
   104   0.00000   3.83455   0.00000   0.03873   90.00000   0.00000   0.00010   103  104  105     12
   105   0.00000   3.83455   0.03873   0.03873   90.00000   0.00000   0.00010   104  105  106     12
   106   0.00000   3.83455   0.07747   0.03873   90.00000   0.00000   0.00010   105  106  107     12
   107   0.00000   3.83455   0.11620   0.03873   90.00000   0.00000   0.00010   106  107  108     12
   108   0.00000   3.83455   0.15493   0.03873   90.00000   0.00000   0.00010   107  108    0     12
   109   0.00000   4.18315  -0.15493   0.03873   90.00000   0.00000   0.00010     0  109  110     13
   110   0.00000   4.18315  -0.11620   0.03873   90.00000   0.00000   0.00010   109  110  111     13
   111   0.00000   4.18315  -0.07747   0.03873   90.00000   0.00000   0.00010   110  111  112     13
   112   0.00000   4.18315  -0.03873   0.03873   90.00000   0.00000   0.00010   111  112  113     13
   113   0.00000   4.18315   0.00000   0.03873   90.00000   0.00000   0.00010   112  113  114     13
   114   0.00000   4.18315   0.03873   0.03873   90.00000   0.00000   0.00010   113  114  115     13
   115   0.00000   4.18315   0.07747   0.03873   90.00000   0.00000   0.00010   114  115  116     13
   116   0.00000   4.18315   0.11620   0.03873   90.00000   0.00000   0.00010   115  116  117     13
   117   0.00000   4.18315   0.15493   0.03873   90.00000   0.00000   0.00010   116  117    0     13
   118   0.00000   4.53175  -0.15493   0.03873   90.00000   0.00000   0.00010     0  118  119     14
   119   0.00000   4.53175  -0.11620   0.03873   90.00000   0.00000   0.00010   118  119  120     14
   120   0.00000   4.53175  -0.07747   0.03873   90.00000   0.00000   0.00010   119  120  121     14
   121   0.00000   4.53175  -0.03873   0.03873   90.00000   0.00000   0.00010   120  121  122     14
   122   0.00000   4.53175   0.00000   0.03873   90.00000   0.00000   0.00010   121  122  123     14
   123   0.00000   4.53175   0.03873   0.03873   90.00000   0.00000   0.00010   122  123  124     14
   124   0.00000   4.53175   0.07747   0.03873   90.00000   0.00000   0.00010   123  124  125     14
   125   0.00000   4.53175   0.11620   0.03873   90.00000   0.00000   0.00010   124  125  126     14
   126   0.00000   4.53175   0.15493   0.03873   90.00000   0.00000   0.00010   125  126    0     14
   127   0.00000   4.88034  -0.15493   0.03873   90.00000   0.00000   0.00010     0  127  128     15
   128   0.00000   4.88034  -0.11620   0.03873   90.00000   0.00000   0.00010   127  128  129     15
   129   0.00000   4.88034  -0.07747   0.03873   90.00000   0.00000   0.00010   128  129  130     15
   130   0.00000   4.88034  -0.03873   0.03873   90.00000   0.00000   0.00010   129  130  131     15
   131   0.00000   4.88034   0.00000   0.03873   90.00000   0.00000   0.00010   130  131  132     15
   132   0.00000   4.88034   0.03873   0.03873   90.00000   0.00000   0.00010   131  132  133     15
   133   0.00000   4.88034   0.07747   0.03873   90.00000   0.00000   0.00010   132  133  134     15
   134   0.00000   4.88034   0.11620   0.03873   90.00000   0.00000   0.00010   133  134  135     15
   135   0.00000   4.88034   0.15493   0.03873   90.00000   0.00000   0.00010   134  135    0     15
   136   0.00000   5.22894  -0.15493   0.03873   90.00000   0.00000   0.00010     0  136  137     16
   137   0.00000   5.22894  -0.11620   0.03873   90.00000   0.00000   0.00010   136  137  138     16
   138   0.00000   5.22894  -0.07747   0.03873   90.00000   0.00000   0.00010   137  138  139     16
   139   0.00000   5.22894  -0.03873   0.03873   90.00000   0.00000   0.00010   138  139  140     16
   140   0.00000   5.22894   0.00000   0.03873   90.00000   0.00000   0.00010   139  140  141     16
   141   0.00000   5.22894   0.03873   0.03873   90.00000   0.00000   0.00010   140  141  142     16
   142   0.00000   5.22894   0.07747   0.03873   90.00000   0.00000   0.00010   141  142  143     16
   143   0.00000   5.22894   0.11620   0.03873   90.00000   0.00000   0.00010   142  143  144     16
   144   0.00000   5.22894   0.15493   0.03873   90.00000   0.00000   0.00010   143  144    0     16
   145   0.00000   5.57753  -0.15493   0.03873   90.00000   0.00000   0.00010     0  145  146     17
   146   0.00000   5.57753  -0.11620   0.03873   90.00000   0.00000   0.00010   145  146  147     17
   147   0.00000   5.57753  -0.07747   0.03873   90.00000   0.00000   0.00010   146  147  148     17
   148   0.00000   5.57753  -0.03873   0.03873   90.00000   0.00000   0.00010   147  148  149     17
   149   0.00000   5.57753   0.00000   0.03873   90.00000   0.00000   0.00010   148  149  150     17
   150   0.00000   5.57753   0.03873   0.03873   90.00000   0.00000   0.00010   149  150  151     17
   151   0.00000   5.57753   0.07747   0.03873   90.00000   0.00000   0.00010   150  151  152     17
   152   0.00000   5.57753   0.11620   0.03873   90.00000   0.00000   0.00010   151  152  153     17
   153   0.00000   5.57753   0.15493   0.03873   90.00000   0.00000   0.00010   152  153    0     17
   154   0.00000   5.92613  -0.15493   0.03873   90.00000   0.00000   0.00010     0  154  155     18
   155   0.00000   5.92613  -0.11620   0.03873   90.00000   0.00000   0.00010   154  155  156     18
   156   0.00000   5.92613  -0.07747   0.03873   90.00000   0.00000   0.00010   155  156  157     18
   157   0.00000   5.92613  -0.03873   0.03873   90.00000   0.00000   0.00010   156  157  158     18
   158   0.00000   5.92613   0.00000   0.03873   90.00000   0.00000   0.00010   157  158  159     18
   159   0.00000   5.92613   0.03873   0.03873   90.00000   0.00000   0.00010   158  159  160     18
   160   0.00000   5.92613   0.07747   0.03873   90.00000   0.00000   0.00010   159  160  161     18
   161   0.00000   5.92613   0.11620   0.03873   90.00000   0.00000   0.00010   160  161  162     18
   162   0.00000   5.92613   0.15493   0.03873   90.00000   0.00000   0.00010   161  162    0     18
   163   0.00000   6.27473  -0.15493   0.03873   90.00000   0.00000   0.00010     0  163  164     19
   164   0.00000   6.27473  -0.11620   0.03873   90.00000   0.00000   0.00010   163  164  165     19
   165   0.00000   6.27473  -0.07747   0.03873   90.00000   0.00000   0.00010   164  165  166     19
   166   0.00000   6.27473  -0.03873   0.03873   90.00000   0.00000   0.00010   165  166  167     19
   167   0.00000   6.27473   0.00000   0.03873   90.00000   0.00000   0.00010   166  167  168     19
   168   0.00000   6.27473   0.03873   0.03873   90.00000   0.00000   0.00010   167  168  169     19
   169   0.00000   6.27473   0.07747   0.03873   90.00000   0.00000   0.00010   168  169  170     19
   170   0.00000   6.27473   0.11620   0.03873   90.00000   0.00000   0.00010   169  170  171     19
   171   0.00000   6.27473   0.15493   0.03873   90.00000   0.00000   0.00010   170  171    0     19
   172   0.00000   6.62332  -0.15493   0.03873   90.00000   0.00000   0.00010     0  172  173     20
   173   0.00000   6.62332  -0.11620   0.03873   90.00000   0.00000   0.00010   172  173  174     20
   174   0.00000   6.62332  -0.07747   0.03873   90.00000   0.00000   0.00010   173  174  175     20
   175   0.00000   6.62332  -0.03873   0.03873   90.00000   0.00000   0.00010   174  175  176     20
   176   0.00000   6.62332   0.00000   0.03873   90.00000   0.00000   0.00010   175  176  177     20
   177   0.00000   6.62332   0.03873   0.03873   90.00000   0.00000   0.00010   176  177  178     20
   178   0.00000   6.62332   0.07747   0.03873   90.00000   0.00000   0.00010   177  178  179     20
   179   0.00000   6.62332   0.11620   0.03873   90.00000   0.00000   0.00010   178  179  180     20
   180   0.00000   6.62332   0.15493   0.03873   90.00000   0.00000   0.00010   179  180    0     20






 ***** DATA CARD NO.  1   LD   4     1     5     5  5.00000E+01  0.00000E+00  0.00000E+00  0.00000E+00  0.00000E+00  0.00000E+00
 ***** DATA CARD NO.  2   LD   4     2     5     5  5.00000E+01  0.00000E+00  0.00000E+00  0.00000E+00  0.00000E+00  0.00000E+00
 ***** DATA CARD NO.  3   LD   4     3     5     5  5.00000E+01  0.00000E+00  0.00000E+00  0.00000E+00  0.00000E+00  0.00000E+00
 ***** DATA CARD NO.  4   LD   4     4     5     5  5.00000E+01  0.00000E+00  0.00000E+00  0.00000E+00  0.00000E+00  0.00000E+00
 ***** DATA CARD NO.  5   LD   4     5     5     5  5.00000E+01  0.00000E+00  0.00000E+00  0.00000E+00  0.00000E+00  0.00000E+00
 ***** DATA CARD NO.  6   LD   4     6     5     5  5.00000E+01  0.00000E+00  0.00000E+00  0.00000E+00  0.00000E+00  0.00000E+00
 ***** DATA CARD NO.  7   LD   4     7     5     5  5.00000E+01  0.00000E+00  0.00000E+00  0.00000E+00  0.00000E+00  0.00000E+00
 ***** DATA CARD NO.  8   LD   4     8     5     5  5.00000E+01  0.00000E+00  0.00000E+00  0.00000E+00  0.00000E+00  0.00000E+00
 ***** DATA CARD NO.  9   LD   4     9     5     5  5.00000E+01  0.00000E+00  0.00000E+00  0.00000E+00  0.00000E+00  0.00000E+00
 ***** DATA CARD NO. 10   LD   4    10     5     5  5.00000E+01  0.00000E+00  0.00000E+00  0.00000E+00  0.00000E+00  0.00000E+00
 ***** DATA CARD NO. 11   LD   4    11     5     5  5.00000E+01  0.00000E+00  0.00000E+00  0.00000E+00  0.00000E+00  0.00000E+00
 ***** DATA CARD NO. 12   LD   4    12     5     5  5.00000E+01  0.00000E+00  0.00000E+00  0.00000E+00  0.00000E+00  0.00000E+00
 ***** DATA CARD NO. 13   LD   4    13     5     5  5.00000E+01  0.00000E+00  0.00000E+00  0.00000E+00  0.00000E+00  0.00000E+00
 ***** DATA CARD NO. 14   LD   4    14     5     5  5.00000E+01  0.00000E+00  0.00000E+00  0.00000E+00  0.00000E+00  0.00000E+00
 ***** DATA CARD NO. 15   LD   4    15     5     5  5.00000E+01  0.00000E+00  0.00000E+00  0.00000E+00  0.00000E+00  0.00000E+00
 ***** DATA CARD NO. 16   LD   4    16     5     5  5.00000E+01  0.00000E+00  0.00000E+00  0.00000E+00  0.00000E+00  0.00000E+00
 ***** DATA CARD NO. 17   LD   4    17     5     5  5.00000E+01  0.00000E+00  0.00000E+00  0.00000E+00  0.00000E+00  0.00000E+00
 ***** DATA CARD NO. 18   LD   4    18     5     5  5.00000E+01  0.00000E+00  0.00000E+00  0.00000E+00  0.00000E+00  0.00000E+00
 ***** DATA CARD NO. 19   LD   4    19     5     5  5.00000E+01  0.00000E+00  0.00000E+00  0.00000E+00  0.00000E+00  0.00000E+00
 ***** DATA CARD NO. 20   LD   4    20     5     5  5.00000E+01  0.00000E+00  0.00000E+00  0.00000E+00  0.00000E+00  0.00000E+00
 ***** DATA CARD NO. 21   GN  -1     0     0     0  0.00000E+00  0.00000E+00  0.00000E+00  0.00000E+00  0.00000E+00  0.00000E+00
 ***** DATA CARD NO. 22   EK   0     0     0     0  0.00000E+00  0.00000E+00  0.00000E+00  0.00000E+00  0.00000E+00  0.00000E+00
 ***** DATA CARD NO. 23   EX   0     8     5     0  1.00000E+00  0.00000E+00  0.00000E+00  0.00000E+00  0.00000E+00  0.00000E+00
 ***** DATA CARD NO. 24   FR   0     0     0     0  4.30000E+02  0.00000E+00  0.00000E+00  0.00000E+00  0.00000E+00  0.00000E+00
 ***** DATA CARD NO. 25   RP   0    37    73  1003 -1.80000E+02  0.00000E+00  5.00000E+00  5.00000E+00  0.00000E+00  0.00000E+00




                                 - - - - - - FREQUENCY - - - - - -

                                    FREQUENCY= 4.3000E+02 MHZ
                                    WAVELENGTH= 6.9721E-01 METERS




                    APPROXIMATE INTEGRATION EMPLOYED FOR SEGMENTS MORE THAN   1.000 WAVELENGTHS APART

                    THE EXTENDED THIN WIRE KERNEL WILL BE USED



                               - - - STRUCTURE IMPEDANCE LOADING - - -


       LOCATION          RESISTANCE   INDUCTANCE  CAPACITANCE       IMPEDANCE (OHMS)     CONDUCTIVITY    TYPE
    ITAG FROM THRU          OHMS        HENRYS       FARADS        REAL      IMAGINARY    MHOS/METER

       1    5    5                                             5.0000E+01                             FIXED IMPEDANCE 

       2    5    5                                             5.0000E+01                             FIXED IMPEDANCE 

       3    5    5                                             5.0000E+01                             FIXED IMPEDANCE 

       4    5    5                                             5.0000E+01                             FIXED IMPEDANCE 

       5    5    5                                             5.0000E+01                             FIXED IMPEDANCE 

       6    5    5                                             5.0000E+01                             FIXED IMPEDANCE 

       7    5    5                                             5.0000E+01                             FIXED IMPEDANCE 

       8    5    5                                             5.0000E+01                             FIXED IMPEDANCE 

       9    5    5                                             5.0000E+01                             FIXED IMPEDANCE 

      10    5    5                                             5.0000E+01                             FIXED IMPEDANCE 

      11    5    5                                             5.0000E+01                             FIXED IMPEDANCE 

      12    5    5                                             5.0000E+01                             FIXED IMPEDANCE 

      13    5    5                                             5.0000E+01                             FIXED IMPEDANCE 

      14    5    5                                             5.0000E+01                             FIXED IMPEDANCE 

      15    5    5                                             5.0000E+01                             FIXED IMPEDANCE 

      16    5    5                                             5.0000E+01                             FIXED IMPEDANCE 

      17    5    5                                             5.0000E+01                             FIXED IMPEDANCE 

      18    5    5                                             5.0000E+01                             FIXED IMPEDANCE 

      19    5    5                                             5.0000E+01                             FIXED IMPEDANCE 

      20    5    5                                             5.0000E+01                             FIXED IMPEDANCE 



                                  - - - ANTENNA ENVIRONMENT - - -

                                            FREE SPACE



                                - - - MATRIX TIMING - - -

                        FILL=    0.031 SEC.,  FACTOR=    0.000 SEC.



                                          - - - ANTENNA INPUT PARAMETERS - - -

   TAG   SEG.    VOLTAGE (VOLTS)         CURRENT (AMPS)         IMPEDANCE (OHMS)        ADMITTANCE (MHOS)      POWER
   NO.   NO.    REAL        IMAG.       REAL        IMAG.       REAL        IMAG.       REAL        IMAG.     (WATTS)
     8    68 1.00000E+00 0.00000E+00 7.30410E-03-1.43856E-03 1.31797E+02 2.59577E+01 7.30410E-03-1.43856E-03 3.65205E-03



                             - - - CURRENTS AND LOCATION - - -

                                 DISTANCES IN WAVELENGTHS


  SEG.  TAG    COORD. OF SEG. CENTER     SEG.            - - - CURRENT (AMPS) - - -
  NO.   NO.     X        Y        Z      LENGTH     REAL        IMAG.       MAG.        PHASE
     1    1   0.0000   0.0000  -0.2222  0.05555   2.0879E-05 -7.3697E-07  2.0892E-05   -2.022
     2    1   0.0000   0.0000  -0.1667  0.05555   5.6269E-05 -2.7565E-06  5.6336E-05   -2.805
     3    1   0.0000   0.0000  -0.1111  0.05555   8.3787E-05 -5.3045E-06  8.3954E-05   -3.623
     4    1   0.0000   0.0000  -0.0556  0.05555   1.0141E-04 -8.1116E-06  1.0173E-04   -4.573
     5    1   0.0000   0.0000   0.0000  0.05555   1.0738E-04 -1.0313E-05  1.0787E-04   -5.486
     6    1   0.0000   0.0000   0.0556  0.05555   1.0141E-04 -8.1116E-06  1.0173E-04   -4.573
     7    1   0.0000   0.0000   0.1111  0.05555   8.3787E-05 -5.3045E-06  8.3954E-05   -3.623
     8    1   0.0000   0.0000   0.1667  0.05555   5.6269E-05 -2.7565E-06  5.6336E-05   -2.805
     9    1   0.0000   0.0000   0.2222  0.05555   2.0879E-05 -7.3697E-07  2.0892E-05   -2.022
    10    2   0.0000   0.5000  -0.2222  0.05555  -2.2133E-05  3.1915E-06  2.2362E-05  171.795
    11    2   0.0000   0.5000  -0.1667  0.05555  -5.9620E-05  9.4238E-06  6.0360E-05  171.018
    12    2   0.0000   0.5000  -0.1111  0.05555  -8.8702E-05  1.5313E-05  9.0014E-05  170.205
    13    2   0.0000   0.5000  -0.0556  0.05555  -1.0721E-04  2.0337E-05  1.0912E-04  169.258
    14    2   0.0000   0.5000   0.0000  0.05555  -1.1334E-04  2.3374E-05  1.1572E-04  168.347
    15    2   0.0000   0.5000   0.0556  0.05555  -1.0721E-04  2.0337E-05  1.0912E-04  169.258
    16    2   0.0000   0.5000   0.1111  0.05555  -8.8702E-05  1.5313E-05  9.0014E-05  170.205
    17    2   0.0000   0.5000   0.1667  0.05555  -5.9620E-05  9.4238E-06  6.0360E-05  171.018
    18    2   0.0000   0.5000   0.2222  0.05555  -2.2133E-05  3.1915E-06  2.2362E-05  171.795
    19    3   0.0000   1.0000  -0.2222  0.05555   2.7135E-05 -3.6480E-06  2.7380E-05   -7.657
    20    3   0.0000   1.0000  -0.1667  0.05555   7.3092E-05 -1.0839E-05  7.3891E-05   -8.435
    21    3   0.0000   1.0000  -0.1111  0.05555   1.0875E-04 -1.7708E-05  1.1018E-04   -9.249
    22    3   0.0000   1.0000  -0.0556  0.05555   1.3145E-04 -2.3642E-05  1.3356E-04  -10.196
    23    3   0.0000   1.0000   0.0000  0.05555   1.3898E-04 -2.7287E-05  1.4163E-04  -11.108
    24    3   0.0000   1.0000   0.0556  0.05555   1.3145E-04 -2.3642E-05  1.3356E-04  -10.196
    25    3   0.0000   1.0000   0.1111  0.05555   1.0875E-04 -1.7708E-05  1.1018E-04   -9.249
    26    3   0.0000   1.0000   0.1667  0.05555   7.3092E-05 -1.0839E-05  7.3891E-05   -8.435
    27    3   0.0000   1.0000   0.2222  0.05555   2.7135E-05 -3.6480E-06  2.7380E-05   -7.657
    28    4   0.0000   1.5000  -0.2222  0.05555  -3.6590E-05  2.9024E-06  3.6705E-05  175.465
    29    4   0.0000   1.5000  -0.1667  0.05555  -9.8585E-05  9.1874E-06  9.9012E-05  174.676
    30    4   0.0000   1.5000  -0.1111  0.05555  -1.4675E-04  1.5800E-05  1.4759E-04  173.855
    31    4   0.0000   1.5000  -0.0556  0.05555  -1.7751E-04  2.2102E-05  1.7888E-04  172.903
    32    4   0.0000   1.5000   0.0000  0.05555  -1.8784E-04  2.6434E-05  1.8969E-04  171.989
    33    4   0.0000   1.5000   0.0556  0.05555  -1.7751E-04  2.2102E-05  1.7888E-04  172.903
    34    4   0.0000   1.5000   0.1111  0.05555  -1.4675E-04  1.5800E-05  1.4759E-04  173.855
    35    4   0.0000   1.5000   0.1667  0.05555  -9.8585E-05  9.1874E-06  9.9012E-05  174.676
    36    4   0.0000   1.5000   0.2222  0.05555  -3.6590E-05  2.9024E-06  3.6705E-05  175.465
    37    5   0.0000   2.0000  -0.2222  0.05555   5.5111E-05  9.0532E-07  5.5118E-05    0.941
    38    5   0.0000   2.0000  -0.1667  0.05555   1.4856E-04  3.6057E-07  1.4856E-04    0.139
    39    5   0.0000   2.0000  -0.1111  0.05555   2.2132E-04 -2.6731E-06  2.2134E-04   -0.692
    40    5   0.0000   2.0000  -0.0556  0.05555   2.6806E-04 -7.7233E-06  2.6817E-04   -1.650
    41    5   0.0000   2.0000   0.0000  0.05555   2.8407E-04 -1.2729E-05  2.8435E-04   -2.566
    42    5   0.0000   2.0000   0.0556  0.05555   2.6806E-04 -7.7233E-06  2.6817E-04   -1.650
    43    5   0.0000   2.0000   0.1111  0.05555   2.2132E-04 -2.6731E-06  2.2134E-04   -0.692
    44    5   0.0000   2.0000   0.1667  0.05555   1.4856E-04  3.6057E-07  1.4856E-04    0.139
    45    5   0.0000   2.0000   0.2222  0.05555   5.5111E-05  9.0532E-07  5.5118E-05    0.941
    46    6   0.0000   2.4999  -0.2222  0.05555  -9.8696E-05 -1.7517E-05  1.0024E-04 -169.935
    47    6   0.0000   2.4999  -0.1667  0.05555  -2.6621E-04 -4.3415E-05  2.6972E-04 -170.737
    48    6   0.0000   2.4999  -0.1111  0.05555  -3.9707E-04 -5.8836E-05  4.0141E-04 -171.572
    49    6   0.0000   2.4999  -0.0556  0.05555  -4.8192E-04 -6.3162E-05  4.8605E-04 -172.533
    50    6   0.0000   2.4999   0.0000  0.05555  -5.1191E-04 -5.8777E-05  5.1527E-04 -173.450
    51    6   0.0000   2.4999   0.0556  0.05555  -4.8192E-04 -6.3162E-05  4.8605E-04 -172.533
    52    6   0.0000   2.4999   0.1111  0.05555  -3.9707E-04 -5.8836E-05  4.0141E-04 -171.572
    53    6   0.0000   2.4999   0.1667  0.05555  -2.6621E-04 -4.3415E-05  2.6972E-04 -170.737
    54    6   0.0000   2.4999   0.2222  0.05555  -9.8696E-05 -1.7517E-05  1.0024E-04 -169.935
    55    7   0.0000   2.9999  -0.2222  0.05555   2.6489E-04  1.2315E-04  2.9211E-04   24.935
    56    7   0.0000   2.9999  -0.1667  0.05555   7.1390E-04  3.2344E-04  7.8375E-04   24.373
    57    7   0.0000   2.9999  -0.1111  0.05555   1.0657E-03  4.6787E-04  1.1639E-03   23.703
    58    7   0.0000   2.9999  -0.0556  0.05555   1.2971E-03  5.4618E-04  1.4074E-03   22.834
    59    7   0.0000   2.9999   0.0000  0.05555   1.3833E-03  5.5742E-04  1.4914E-03   21.948
    60    7   0.0000   2.9999   0.0556  0.05555   1.2971E-03  5.4618E-04  1.4074E-03   22.834
    61    7   0.0000   2.9999   0.1111  0.05555   1.0657E-03  4.6787E-04  1.1639E-03   23.703
    62    7   0.0000   2.9999   0.1667  0.05555   7.1390E-04  3.2344E-04  7.8375E-04   24.373
    63    7   0.0000   2.9999   0.2222  0.05555   2.6489E-04  1.2315E-04  2.9211E-04   24.935
    64    8   0.0000   3.4999  -0.2222  0.05555   1.4335E-03 -4.0793E-04  1.4904E-03  -15.885
    65    8   0.0000   3.4999  -0.1667  0.05555   3.8523E-03 -1.0334E-03  3.9885E-03  -15.016
    66    8   0.0000   3.4999  -0.1111  0.05555   5.7224E-03 -1.4229E-03  5.8966E-03  -13.963
    67    8   0.0000   3.4999  -0.0556  0.05555   6.9103E-03 -1.5420E-03  7.0802E-03  -12.579
    68    8   0.0000   3.4999   0.0000  0.05555   7.3041E-03 -1.4386E-03  7.4444E-03  -11.142
    69    8   0.0000   3.4999   0.0556  0.05555   6.9103E-03 -1.5420E-03  7.0802E-03  -12.579
    70    8   0.0000   3.4999   0.1111  0.05555   5.7224E-03 -1.4229E-03  5.8966E-03  -13.963
    71    8   0.0000   3.4999   0.1667  0.05555   3.8523E-03 -1.0334E-03  3.9885E-03  -15.016
    72    8   0.0000   3.4999   0.2222  0.05555   1.4335E-03 -4.0793E-04  1.4904E-03  -15.885
    73    9   0.0000   3.9999  -0.2222  0.05555   2.6471E-04  1.2311E-04  2.9194E-04   24.943
    74    9   0.0000   3.9999  -0.1667  0.05555   7.1342E-04  3.2334E-04  7.8327E-04   24.382
    75    9   0.0000   3.9999  -0.1111  0.05555   1.0650E-03  4.6774E-04  1.1632E-03   23.711
    76    9   0.0000   3.9999  -0.0556  0.05555   1.2963E-03  5.4603E-04  1.4066E-03   22.843
    77    9   0.0000   3.9999   0.0000  0.05555   1.3824E-03  5.5728E-04  1.4905E-03   21.956
    78    9   0.0000   3.9999   0.0556  0.05555   1.2963E-03  5.4603E-04  1.4066E-03   22.843
    79    9   0.0000   3.9999   0.1111  0.05555   1.0650E-03  4.6774E-04  1.1632E-03   23.711
    80    9   0.0000   3.9999   0.1667  0.05555   7.1342E-04  3.2334E-04  7.8327E-04   24.382
    81    9   0.0000   3.9999   0.2222  0.05555   2.6471E-04  1.2311E-04  2.9194E-04   24.943
    82   10   0.0000   4.4999  -0.2222  0.05555  -9.8319E-05 -1.7433E-05  9.9852E-05 -169.945
    83   10   0.0000   4.4999  -0.1667  0.05555  -2.6518E-04 -4.3202E-05  2.6868E-04 -170.747
    84   10   0.0000   4.4999  -0.1111  0.05555  -3.9555E-04 -5.8540E-05  3.9985E-04 -171.581
    85   10   0.0000   4.4999  -0.0556  0.05555  -4.8007E-04 -6.2834E-05  4.8416E-04 -172.543
    86   10   0.0000   4.4999   0.0000  0.05555  -5.0993E-04 -5.8460E-05  5.1327E-04 -173.460
    87   10   0.0000   4.4999   0.0556  0.05555  -4.8007E-04 -6.2834E-05  4.8416E-04 -172.543
    88   10   0.0000   4.4999   0.1111  0.05555  -3.9555E-04 -5.8540E-05  3.9985E-04 -171.581
    89   10   0.0000   4.4999   0.1667  0.05555  -2.6518E-04 -4.3202E-05  2.6868E-04 -170.747
    90   10   0.0000   4.4999   0.2222  0.05555  -9.8319E-05 -1.7433E-05  9.9852E-05 -169.945
    91   11   0.0000   4.9999  -0.2222  0.05555   5.4493E-05  7.5498E-07  5.4498E-05    0.794
    92   11   0.0000   4.9999  -0.1667  0.05555   1.4689E-04 -2.2522E-08  1.4689E-04   -0.009
    93   11   0.0000   4.9999  -0.1111  0.05555   2.1882E-04 -3.2089E-06  2.1884E-04   -0.840
    94   11   0.0000   4.9999  -0.0556  0.05555   2.6502E-04 -8.3225E-06  2.6515E-04   -1.799
    95   11   0.0000   4.9999   0.0000  0.05555   2.8083E-04 -1.3313E-05  2.8114E-04   -2.714
    96   11   0.0000   4.9999   0.0556  0.05555   2.6502E-04 -8.3225E-06  2.6515E-04   -1.799
    97   11   0.0000   4.9999   0.1111  0.05555   2.1882E-04 -3.2089E-06  2.1884E-04   -0.840
    98   11   0.0000   4.9999   0.1667  0.05555   1.4689E-04 -2.2521E-08  1.4689E-04   -0.009
    99   11   0.0000   4.9999   0.2222  0.05555   5.4493E-05  7.5498E-07  5.4498E-05    0.794
   100   12   0.0000   5.4999  -0.2222  0.05555  -3.5644E-05  3.1620E-06  3.5784E-05  174.931
   101   12   0.0000   5.4999  -0.1667  0.05555  -9.6023E-05  9.8527E-06  9.6527E-05  174.142
   102   12   0.0000   5.4999  -0.1111  0.05555  -1.4291E-04  1.6737E-05  1.4389E-04  173.320
   103   12   0.0000   5.4999  -0.0556  0.05555  -1.7284E-04  2.3161E-05  1.7439E-04  172.368
   104   12   0.0000   5.4999   0.0000  0.05555  -1.8288E-04  2.7478E-05  1.8493E-04  171.455
   105   12   0.0000   5.4999   0.0556  0.05555  -1.7284E-04  2.3161E-05  1.7439E-04  172.368
   106   12   0.0000   5.4999   0.1111  0.05555  -1.4291E-04  1.6737E-05  1.4389E-04  173.320
   107   12   0.0000   5.4999   0.1667  0.05555  -9.6023E-05  9.8527E-06  9.6527E-05  174.142
   108   12   0.0000   5.4999   0.2222  0.05555  -3.5644E-05  3.1620E-06  3.5784E-05  174.931
   109   13   0.0000   5.9998  -0.2222  0.05555   2.5684E-05 -4.1236E-06  2.6013E-05   -9.121
   110   13   0.0000   5.9998  -0.1667  0.05555   6.9161E-05 -1.2067E-05  7.0206E-05   -9.897
   111   13   0.0000   5.9998  -0.1111  0.05555   1.0286E-04 -1.9454E-05  1.0469E-04  -10.710
   112   13   0.0000   5.9998  -0.0556  0.05555   1.2428E-04 -2.5640E-05  1.2690E-04  -11.657
   113   13   0.0000   5.9998   0.0000  0.05555   1.3135E-04 -2.9284E-05  1.3458E-04  -12.568
   114   13   0.0000   5.9998   0.0556  0.05555   1.2428E-04 -2.5640E-05  1.2690E-04  -11.657
   115   13   0.0000   5.9998   0.1111  0.05555   1.0286E-04 -1.9454E-05  1.0469E-04  -10.710
   116   13   0.0000   5.9998   0.1667  0.05555   6.9161E-05 -1.2067E-05  7.0206E-05   -9.897
   117   13   0.0000   5.9998   0.2222  0.05555   2.5684E-05 -4.1236E-06  2.6013E-05   -9.121
   118   14   0.0000   6.4998  -0.2222  0.05555  -1.9748E-05  4.2144E-06  2.0193E-05  167.953
   119   14   0.0000   6.4998  -0.1667  0.05555  -5.3159E-05  1.2090E-05  5.4517E-05  167.187
   120   14   0.0000   6.4998  -0.1111  0.05555  -7.9024E-05  1.9144E-05  8.1310E-05  166.382
   121   14   0.0000   6.4998  -0.0556  0.05555  -9.5409E-05  2.4781E-05  9.8574E-05  165.440
   122   14   0.0000   6.4998   0.0000  0.05555  -1.0075E-04  2.7885E-05  1.0454E-04  164.530
   123   14   0.0000   6.4998   0.0556  0.05555  -9.5409E-05  2.4781E-05  9.8574E-05  165.440
   124   14   0.0000   6.4998   0.1111  0.05555  -7.9024E-05  1.9144E-05  8.1310E-05  166.382
   125   14   0.0000   6.4998   0.1667  0.05555  -5.3159E-05  1.2090E-05  5.4517E-05  167.187
   126   14   0.0000   6.4998   0.2222  0.05555  -1.9748E-05  4.2144E-06  2.0193E-05  167.953
   127   15   0.0000   6.9998  -0.2222  0.05555   1.5927E-05 -4.0219E-06  1.6427E-05  -14.172
   128   15   0.0000   6.9998  -0.1667  0.05555   4.2862E-05 -1.1429E-05  4.4359E-05  -14.930
   129   15   0.0000   6.9998  -0.1111  0.05555   6.3693E-05 -1.7938E-05  6.6171E-05  -15.729
   130   15   0.0000   6.9998  -0.0556  0.05555   7.6856E-05 -2.3012E-05  8.0227E-05  -16.668
   131   15   0.0000   6.9998   0.0000  0.05555   8.1114E-05 -2.5695E-05  8.5087E-05  -17.577
   132   15   0.0000   6.9998   0.0556  0.05555   7.6856E-05 -2.3012E-05  8.0227E-05  -16.668
   133   15   0.0000   6.9998   0.1111  0.05555   6.3693E-05 -1.7938E-05  6.6171E-05  -15.729
   134   15   0.0000   6.9998   0.1667  0.05555   4.2862E-05 -1.1429E-05  4.4359E-05  -14.930
   135   15   0.0000   6.9998   0.2222  0.05555   1.5927E-05 -4.0219E-06  1.6427E-05  -14.172
   136   16   0.0000   7.4998  -0.2222  0.05555  -1.3347E-05  3.7354E-06  1.3860E-05  164.365
   137   16   0.0000   7.4998  -0.1667  0.05555  -3.5913E-05  1.0560E-05  3.7434E-05  163.614
   138   16   0.0000   7.4998  -0.1111  0.05555  -5.3354E-05  1.6497E-05  5.5846E-05  162.819
   139   16   0.0000   7.4998  -0.0556  0.05555  -6.4356E-05  2.1057E-05  6.7713E-05  161.882
   140   16   0.0000   7.4998   0.0000  0.05555  -6.7893E-05  2.3412E-05  7.1816E-05  160.974
   141   16   0.0000   7.4998   0.0556  0.05555  -6.4356E-05  2.1057E-05  6.7713E-05  161.882
   142   16   0.0000   7.4998   0.1111  0.05555  -5.3354E-05  1.6497E-05  5.5846E-05  162.819
   143   16   0.0000   7.4998   0.1667  0.05555  -3.5913E-05  1.0560E-05  3.7434E-05  163.614
   144   16   0.0000   7.4998   0.2222  0.05555  -1.3347E-05  3.7354E-06  1.3860E-05  164.365
   145   17   0.0000   7.9998  -0.2222  0.05555   1.1576E-05 -3.4126E-06  1.2069E-05  -16.425
   146   17   0.0000   7.9998  -0.1667  0.05555   3.1147E-05 -9.6250E-06  3.2600E-05  -17.172
   147   17   0.0000   7.9998  -0.1111  0.05555   4.6267E-05 -1.5001E-05  4.8638E-05  -17.965
   148   17   0.0000   7.9998  -0.0556  0.05555   5.5797E-05 -1.9103E-05  5.8976E-05  -18.900
   149   17   0.0000   7.9998   0.0000  0.05555   5.8850E-05 -2.1196E-05  6.2550E-05  -19.807
   150   17   0.0000   7.9998   0.0556  0.05555   5.5797E-05 -1.9103E-05  5.8976E-05  -18.900
   151   17   0.0000   7.9998   0.1111  0.05555   4.6267E-05 -1.5001E-05  4.8638E-05  -17.965
   152   17   0.0000   7.9998   0.1667  0.05555   3.1147E-05 -9.6250E-06  3.2600E-05  -17.172
   153   17   0.0000   7.9998   0.2222  0.05555   1.1576E-05 -3.4126E-06  1.2069E-05  -16.425
   154   18   0.0000   8.4998  -0.2222  0.05555  -1.0412E-05  3.0461E-06  1.0849E-05  163.693
   155   18   0.0000   8.4998  -0.1667  0.05555  -2.8017E-05  8.5946E-06  2.9306E-05  162.946
   156   18   0.0000   8.4998  -0.1111  0.05555  -4.1621E-05  1.3400E-05  4.3725E-05  162.154
   157   18   0.0000   8.4998  -0.0556  0.05555  -5.0197E-05  1.7070E-05  5.3020E-05  161.219
   158   18   0.0000   8.4998   0.0000  0.05555  -5.2946E-05  1.8945E-05  5.6234E-05  160.312
   159   18   0.0000   8.4998   0.0556  0.05555  -5.0197E-05  1.7070E-05  5.3020E-05  161.219
   160   18   0.0000   8.4998   0.1111  0.05555  -4.1621E-05  1.3400E-05  4.3725E-05  162.154
   161   18   0.0000   8.4998   0.1667  0.05555  -2.8017E-05  8.5946E-06  2.9306E-05  162.946
   162   18   0.0000   8.4998   0.2222  0.05555  -1.0412E-05  3.0461E-06  1.0849E-05  163.693
   163   19   0.0000   8.9998  -0.2222  0.05555   9.8509E-06 -2.5257E-06  1.0170E-05  -14.381
   164   19   0.0000   8.9998  -0.1667  0.05555   2.6516E-05 -7.1728E-06  2.7469E-05  -15.137
   165   19   0.0000   8.9998  -0.1111  0.05555   3.9407E-05 -1.1252E-05  4.0982E-05  -15.935
   166   19   0.0000   8.9998  -0.0556  0.05555   4.7552E-05 -1.4424E-05  4.9692E-05  -16.874
   167   19   0.0000   8.9998   0.0000  0.05555   5.0185E-05 -1.6096E-05  5.2703E-05  -17.783
   168   19   0.0000   8.9998   0.0556  0.05555   4.7552E-05 -1.4424E-05  4.9692E-05  -16.874
   169   19   0.0000   8.9998   0.1111  0.05555   3.9407E-05 -1.1252E-05  4.0982E-05  -15.935
   170   19   0.0000   8.9998   0.1667  0.05555   2.6516E-05 -7.1728E-06  2.7469E-05  -15.137
   171   19   0.0000   8.9998   0.2222  0.05555   9.8509E-06 -2.5257E-06  1.0170E-05  -14.381
   172   20   0.0000   9.4998  -0.2222  0.05555  -1.0511E-05  1.1258E-06  1.0572E-05  173.887
   173   20   0.0000   9.4998  -0.1667  0.05555  -2.8312E-05  3.4201E-06  2.8518E-05  173.112
   174   20   0.0000   9.4998  -0.1111  0.05555  -4.2126E-05  5.6958E-06  4.2510E-05  172.300
   175   20   0.0000   9.4998  -0.0556  0.05555  -5.0933E-05  7.7461E-06  5.1518E-05  171.352
   176   20   0.0000   9.4998   0.0000  0.05555  -5.3873E-05  9.0724E-06  5.4631E-05  170.441
   177   20   0.0000   9.4998   0.0556  0.05555  -5.0933E-05  7.7461E-06  5.1518E-05  171.352
   178   20   0.0000   9.4998   0.1111  0.05555  -4.2126E-05  5.6958E-06  4.2510E-05  172.300
   179   20   0.0000   9.4998   0.1667  0.05555  -2.8312E-05  3.4201E-06  2.8518E-05  173.112
   180   20   0.0000   9.4998   0.2222  0.05555  -1.0511E-05  1.1258E-06  1.0572E-05  173.887



                                        - - - POWER BUDGET - - -

                                           INPUT POWER   = 3.6521E-03 WATTS
                                           RADIATED POWER= 2.1340E-03 WATTS
                                           STRUCTURE LOSS= 1.5181E-03 WATTS
                                           NETWORK LOSS  = 0.0000E+00 WATTS
                                           EFFICIENCY    =  58.43 PERCENT



                                                - - - RADIATION PATTERNS - - -

  - - ANGLES - -           - POWER GAINS -       - - - POLARIZATION - - -    - - - E(THETA) - - -    - - - E(PHI) - - -
  THETA     PHI        VERT.   HOR.    TOTAL      AXIAL     TILT   SENSE     MAGNITUDE    PHASE      MAGNITUDE    PHASE 
 DEGREES  DEGREES       DB      DB      DB        RATIO     DEG.              VOLTS/M    DEGREES      VOLTS/M    DEGREES
 -180.00     0.00    -999.99 -999.99 -999.99    0.00000     0.00            4.60145E-12    86.07    0.00000E+00     0.00
 -175.00     0.00     -21.50 -999.99  -21.50    0.00000     0.00  LINEAR    3.93690E-02   -93.93    0.00000E+00     0.00
 -170.00     0.00     -15.46 -999.99  -15.46    0.00000     0.00  LINEAR    7.88974E-02   -93.94    0.00000E+00     0.00
 -165.00     0.00     -11.91 -999.99  -11.91    0.00000     0.00  LINEAR    1.18718E-01   -93.95    0.00000E+00     0.00
 -160.00     0.00      -9.38 -999.99   -9.38    0.00000     0.00  LINEAR    1.58912E-01   -93.96    0.00000E+00     0.00
 -155.00     0.00      -7.41 -999.99   -7.41    0.00000     0.00  LINEAR    1.99483E-01   -93.98    0.00000E+00     0.00
 -150.00     0.00      -5.79 -999.99   -5.79    0.00000     0.00  LINEAR    2.40342E-01   -94.00    0.00000E+00     0.00
 -145.00     0.00      -4.42 -999.99   -4.42    0.00000     0.00  LINEAR    2.81283E-01   -94.02    0.00000E+00     0.00
 -140.00     0.00      -3.25 -999.99   -3.25    0.00000     0.00  LINEAR    3.21980E-01   -94.05    0.00000E+00     0.00
 -135.00     0.00      -2.23 -999.99   -2.23    0.00000     0.00  LINEAR    3.61981E-01   -94.07    0.00000E+00     0.00
 -130.00     0.00      -1.35 -999.99   -1.35    0.00000     0.00  LINEAR    4.00715E-01   -94.09    0.00000E+00     0.00
 -125.00     0.00      -0.58 -999.99   -0.58    0.00000     0.00  LINEAR    4.37510E-01   -94.11    0.00000E+00     0.00
 -120.00     0.00       0.07 -999.99    0.07    0.00000     0.00  LINEAR    4.71616E-01   -94.13    0.00000E+00     0.00
 -115.00     0.00       0.61 -999.99    0.61    0.00000     0.00  LINEAR    5.02247E-01   -94.15    0.00000E+00     0.00
 -110.00     0.00       1.06 -999.99    1.06    0.00000     0.00  LINEAR    5.28621E-01   -94.17    0.00000E+00     0.00
 -105.00     0.00       1.40 -999.99    1.40    0.00000     0.00  LINEAR    5.50008E-01   -94.18    0.00000E+00     0.00
 -100.00     0.00       1.65 -999.99    1.65    0.00000     0.00  LINEAR    5.65778E-01   -94.19    0.00000E+00     0.00
  -95.00     0.00       1.80 -999.99    1.80    0.00000     0.00  LINEAR    5.75445E-01   -94.19    0.00000E+00     0.00
  -90.00     0.00       1.85 -999.99    1.85    0.00000     0.00  LINEAR    5.78702E-01   -94.19    0.00000E+00     0.00
  -85.00     0.00       1.80 -999.99    1.80    0.00000     0.00  LINEAR    5.75445E-01   -94.19    0.00000E+00     0.00
  -80.00     0.00       1.65 -999.99    1.65    0.00000     0.00  LINEAR    5.65778E-01   -94.19    0.00000E+00     0.00
  -75.00     0.00       1.40 -999.99    1.40    0.00000     0.00  LINEAR    5.50008E-01   -94.18    0.00000E+00     0.00
  -70.00     0.00       1.06 -999.99    1.06    0.00000     0.00  LINEAR    5.28621E-01   -94.17    0.00000E+00     0.00
  -65.00     0.00       0.61 -999.99    0.61    0.00000     0.00  LINEAR    5.02247E-01   -94.15    0.00000E+00     0.00
  -60.00     0.00       0.07 -999.99    0.07    0.00000     0.00  LINEAR    4.71616E-01   -94.13    0.00000E+00     0.00
  -55.00     0.00      -0.58 -999.99   -0.58    0.00000     0.00  LINEAR    4.37510E-01   -94.11    0.00000E+00     0.00
  -50.00     0.00      -1.35 -999.99   -1.35    0.00000     0.00  LINEAR    4.00715E-01   -94.09    0.00000E+00     0.00
  -45.00     0.00      -2.23 -999.99   -2.23    0.00000     0.00  LINEAR    3.61981E-01   -94.07    0.00000E+00     0.00
  -40.00     0.00      -3.25 -999.99   -3.25    0.00000     0.00  LINEAR    3.21980E-01   -94.05    0.00000E+00     0.00
  -35.00     0.00      -4.42 -999.99   -4.42    0.00000     0.00  LINEAR    2.81283E-01   -94.02    0.00000E+00     0.00
  -30.00     0.00      -5.79 -999.99   -5.79    0.00000     0.00  LINEAR    2.40342E-01   -94.00    0.00000E+00     0.00
  -25.00     0.00      -7.41 -999.99   -7.41    0.00000     0.00  LINEAR    1.99483E-01   -93.98    0.00000E+00     0.00
  -20.00     0.00      -9.38 -999.99   -9.38    0.00000     0.00  LINEAR    1.58912E-01   -93.96    0.00000E+00     0.00
  -15.00     0.00     -11.91 -999.99  -11.91    0.00000     0.00  LINEAR    1.18718E-01   -93.95    0.00000E+00     0.00
  -10.00     0.00     -15.46 -999.99  -15.46    0.00000     0.00  LINEAR    7.88974E-02   -93.94    0.00000E+00     0.00
   -5.00     0.00     -21.50 -999.99  -21.50    0.00000     0.00  LINEAR    3.93690E-02   -93.93    0.00000E+00     0.00
    0.00     0.00    -999.99 -999.99 -999.99    0.00000     0.00            0.00000E+00     0.00    0.00000E+00     0.00
 -180.00     5.00    -999.99 -999.99 -999.99    0.00000     0.00            4.60145E-12    86.07    0.00000E+00     0.00
 -175.00     5.00     -21.50 -999.99  -21.50    0.00000     0.00  LINEAR    3.93658E-02  -103.39    0.00000E+00     0.00
 -170.00     5.00     -15.46 -999.99  -15.46    0.00000     0.00  LINEAR    7.88866E-02  -112.80    0.00000E+00     0.00
 -165.00     5.00     -11.92 -999.99  -11.92    0.00000     0.00  LINEAR    1.18695E-01  -122.08    0.00000E+00     0.00
 -160.00     5.00      -9.38 -999.99   -9.38    0.00000     0.00  LINEAR    1.58868E-01  -131.17    0.00000E+00     0.00
 -155.00     5.00      -7.41 -999.99   -7.41    0.00000     0.00  LINEAR    1.99397E-01  -140.00    0.00000E+00     0.00
 -150.00     5.00      -5.79 -999.99   -5.79    0.00000     0.00  LINEAR    2.40177E-01  -148.50    0.00000E+00     0.00
 -145.00     5.00      -4.43 -999.99   -4.43    0.00000     0.00  LINEAR    2.80986E-01  -156.61    0.00000E+00     0.00
 -140.00     5.00      -3.26 -999.99   -3.26    0.00000     0.00  LINEAR    3.21482E-01  -164.25    0.00000E+00     0.00
 -135.00     5.00      -2.25 -999.99   -2.25    0.00000     0.00  LINEAR    3.61207E-01  -171.38    0.00000E+00     0.00
 -130.00     5.00      -1.37 -999.99   -1.37    0.00000     0.00  LINEAR    3.99590E-01  -177.91    0.00000E+00     0.00
 -125.00     5.00      -0.61 -999.99   -0.61    0.00000     0.00  LINEAR    4.35971E-01   176.19    0.00000E+00     0.00
 -120.00     5.00       0.03 -999.99    0.03    0.00000     0.00  LINEAR    4.69623E-01   170.97    0.00000E+00     0.00
 -115.00     5.00       0.57 -999.99    0.57    0.00000     0.00  LINEAR    4.99789E-01   166.48    0.00000E+00     0.00
 -110.00     5.00       1.01 -999.99    1.01    0.00000     0.00  LINEAR    5.25719E-01   162.76    0.00000E+00     0.00
 -105.00     5.00       1.35 -999.99    1.35    0.00000     0.00  LINEAR    5.46717E-01   159.84    0.00000E+00     0.00
 -100.00     5.00       1.59 -999.99    1.59    0.00000     0.00  LINEAR    5.62184E-01   157.73    0.00000E+00     0.00
  -95.00     5.00       1.74 -999.99    1.74    0.00000     0.00  LINEAR    5.71658E-01   156.46    0.00000E+00     0.00
  -90.00     5.00       1.79 -999.99    1.79    0.00000     0.00  LINEAR    5.74850E-01   156.04    0.00000E+00     0.00
  -85.00     5.00       1.74 -999.99    1.74    0.00000     0.00  LINEAR    5.71658E-01   156.46    0.00000E+00     0.00
  -80.00     5.00       1.59 -999.99    1.59    0.00000     0.00  LINEAR    5.62184E-01   157.73    0.00000E+00     0.00
  -75.00     5.00       1.35 -999.99    1.35    0.00000     0.00  LINEAR    5.46717E-01   159.84    0.00000E+00     0.00
  -70.00     5.00       1.01 -999.99    1.01    0.00000     0.00  LINEAR    5.25719E-01   162.76    0.00000E+00     0.00
  -65.00     5.00       0.57 -999.99    0.57    0.00000     0.00  LINEAR    4.99789E-01   166.48    0.00000E+00     0.00
  -60.00     5.00       0.03 -999.99    0.03    0.00000     0.00  LINEAR    4.69623E-01   170.97    0.00000E+00     0.00
  -55.00     5.00      -0.61 -999.99   -0.61    0.00000     0.00  LINEAR    4.35971E-01   176.19    0.00000E+00     0.00
  -50.00     5.00      -1.37 -999.99   -1.37    0.00000     0.00  LINEAR    3.99590E-01  -177.91    0.00000E+00     0.00
  -45.00     5.00      -2.25 -999.99   -2.25    0.00000     0.00  LINEAR    3.61207E-01  -171.38    0.00000E+00     0.00
  -40.00     5.00      -3.26 -999.99   -3.26    0.00000     0.00  LINEAR    3.21482E-01  -164.25    0.00000E+00     0.00
  -35.00     5.00      -4.43 -999.99   -4.43    0.00000     0.00  LINEAR    2.80986E-01  -156.61    0.00000E+00     0.00
  -30.00     5.00      -5.79 -999.99   -5.79    0.00000     0.00  LINEAR    2.40177E-01  -148.50    0.00000E+00     0.00
  -25.00     5.00      -7.41 -999.99   -7.41    0.00000     0.00  LINEAR    1.99397E-01  -140.00    0.00000E+00     0.00
  -20.00     5.00      -9.38 -999.99   -9.38    0.00000     0.00  LINEAR    1.58868E-01  -131.17    0.00000E+00     0.00
  -15.00     5.00     -11.92 -999.99  -11.92    0.00000     0.00  LINEAR    1.18695E-01  -122.08    0.00000E+00     0.00
  -10.00     5.00     -15.46 -999.99  -15.46    0.00000     0.00  LINEAR    7.88866E-02  -112.80    0.00000E+00     0.00
   -5.00     5.00     -21.50 -999.99  -21.50    0.00000     0.00  LINEAR    3.93658E-02  -103.39    0.00000E+00     0.00
    0.00     5.00    -999.99 -999.99 -999.99    0.00000     0.00            0.00000E+00     0.00    0.00000E+00     0.00
 -180.00    10.00    -999.99 -999.99 -999.99    0.00000     0.00            4.60145E-12    86.07    0.00000E+00     0.00
 -175.00    10.00     -21.50 -999.99  -21.50    0.00000     0.00  LINEAR    3.93637E-02  -112.79    0.00000E+00     0.00
 -170.00    10.00     -15.47 -999.99  -15.47    0.00000     0.00  LINEAR    7.88756E-02  -131.58    0.00000E+00     0.00
 -165.00    10.00     -11.92 -999.99  -11.92    0.00000     0.00  LINEAR    1.18630E-01  -150.17    0.00000E+00     0.00
 -160.00    10.00      -9.40 -999.99   -9.40    0.00000     0.00  LINEAR    1.58615E-01  -168.43    0.00000E+00     0.00
 -155.00    10.00      -7.44 -999.99   -7.44    0.00000     0.00  LINEAR    1.98719E-01   173.79    0.00000E+00     0.00
 -150.00    10.00      -5.84 -999.99   -5.84    0.00000     0.00  LINEAR    2.38762E-01   156.65    0.00000E+00     0.00
 -145.00    10.00      -4.51 -999.99   -4.51    0.00000     0.00  LINEAR    2.78526E-01   140.33    0.00000E+00     0.00
 -140.00    10.00      -3.36 -999.99   -3.36    0.00000     0.00  LINEAR    3.17751E-01   124.98    0.00000E+00     0.00
 -135.00    10.00      -2.37 -999.99   -2.37    0.00000     0.00  LINEAR    3.56119E-01   110.72    0.00000E+00     0.00
 -130.00    10.00      -1.51 -999.99   -1.51    0.00000     0.00  LINEAR    3.93211E-01    97.67    0.00000E+00     0.00
 -125.00    10.00      -0.77 -999.99   -0.77    0.00000     0.00  LINEAR    4.28487E-01    85.93    0.00000E+00     0.00
 -120.00    10.00      -0.12 -999.99   -0.12    0.00000     0.00  LINEAR    4.61286E-01    75.58    0.00000E+00     0.00
 -115.00    10.00       0.42 -999.99    0.42    0.00000     0.00  LINEAR    4.90858E-01    66.69    0.00000E+00     0.00
 -110.00    10.00       0.86 -999.99    0.86    0.00000     0.00  LINEAR    5.16420E-01    59.33    0.00000E+00     0.00
 -105.00    10.00       1.20 -999.99    1.20    0.00000     0.00  LINEAR    5.37219E-01    53.54    0.00000E+00     0.00
 -100.00    10.00       1.44 -999.99    1.44    0.00000     0.00  LINEAR    5.52594E-01    49.38    0.00000E+00     0.00
  -95.00    10.00       1.59 -999.99    1.59    0.00000     0.00  LINEAR    5.62035E-01    46.87    0.00000E+00     0.00
  -90.00    10.00       1.64 -999.99    1.64    0.00000     0.00  LINEAR    5.65218E-01    46.03    0.00000E+00     0.00
  -85.00    10.00       1.59 -999.99    1.59    0.00000     0.00  LINEAR    5.62035E-01    46.87    0.00000E+00     0.00
  -80.00    10.00       1.44 -999.99    1.44    0.00000     0.00  LINEAR    5.52594E-01    49.38    0.00000E+00     0.00
  -75.00    10.00       1.20 -999.99    1.20    0.00000     0.00  LINEAR    5.37219E-01    53.54    0.00000E+00     0.00
  -70.00    10.00       0.86 -999.99    0.86    0.00000     0.00  LINEAR    5.16420E-01    59.33    0.00000E+00     0.00
  -65.00    10.00       0.42 -999.99    0.42    0.00000     0.00  LINEAR    4.90858E-01    66.69    0.00000E+00     0.00
  -60.00    10.00      -0.12 -999.99   -0.12    0.00000     0.00  LINEAR    4.61286E-01    75.58    0.00000E+00     0.00
  -55.00    10.00      -0.77 -999.99   -0.77    0.00000     0.00  LINEAR    4.28487E-01    85.93    0.00000E+00     0.00
  -50.00    10.00      -1.51 -999.99   -1.51    0.00000     0.00  LINEAR    3.93211E-01    97.67    0.00000E+00     0.00
  -45.00    10.00      -2.37 -999.99   -2.37    0.00000     0.00  LINEAR    3.56119E-01   110.72    0.00000E+00     0.00
  -40.00    10.00      -3.36 -999.99   -3.36    0.00000     0.00  LINEAR    3.17751E-01   124.98    0.00000E+00     0.00
  -35.00    10.00      -4.51 -999.99   -4.51    0.00000     0.00  LINEAR    2.78526E-01   140.33    0.00000E+00     0.00
  -30.00    10.00      -5.84 -999.99   -5.84    0.00000     0.00  LINEAR    2.38762E-01   156.65    0.00000E+00     0.00
  -25.00    10.00      -7.44 -999.99   -7.44    0.00000     0.00  LINEAR    1.98719E-01   173.79    0.00000E+00     0.00
  -20.00    10.00      -9.40 -999.99   -9.40    0.00000     0.00  LINEAR    1.58615E-01  -168.43    0.00000E+00     0.00
  -15.00    10.00     -11.92 -999.99  -11.92    0.00000     0.00  LINEAR    1.18630E-01  -150.17    0.00000E+00     0.00
  -10.00    10.00     -15.47 -999.99  -15.47    0.00000     0.00  LINEAR    7.88756E-02  -131.58    0.00000E+00     0.00
   -5.00    10.00     -21.50 -999.99  -21.50    0.00000     0.00  LINEAR    3.93637E-02  -112.79    0.00000E+00     0.00
    0.00    10.00    -999.99 -999.99 -999.99    0.00000     0.00            0.00000E+00     0.00    0.00000E+00     0.00
 -180.00    15.00    -999.99 -999.99 -999.99    0.00000     0.00            4.60145E-12    86.07    0.00000E+00     0.00
 -175.00    15.00     -21.50 -999.99  -21.50    0.00000     0.00  LINEAR    3.93617E-02  -122.06    0.00000E+00     0.00
 -170.00    15.00     -15.47 -999.99  -15.47    0.00000     0.00  LINEAR    7.88393E-02  -150.16    0.00000E+00     0.00
 -165.00    15.00     -11.94 -999.99  -11.94    0.00000     0.00  LINEAR    1.18384E-01  -178.05    0.00000E+00     0.00
 -160.00    15.00      -9.44 -999.99   -9.44    0.00000     0.00  LINEAR    1.57804E-01   154.53    0.00000E+00     0.00
 -155.00    15.00      -7.52 -999.99   -7.52    0.00000     0.00  LINEAR    1.96986E-01   127.90    0.00000E+00     0.00
 -150.00    15.00      -5.94 -999.99   -5.94    0.00000     0.00  LINEAR    2.36038E-01   102.36    0.00000E+00     0.00
 -145.00    15.00      -4.61 -999.99   -4.61    0.00000     0.00  LINEAR    2.75183E-01    78.14    0.00000E+00     0.00
 -140.00    15.00      -3.45 -999.99   -3.45    0.00000     0.00  LINEAR    3.14484E-01    55.41    0.00000E+00     0.00
 -135.00    15.00      -2.43 -999.99   -2.43    0.00000     0.00  LINEAR    3.53616E-01    34.30    0.00000E+00     0.00
 -130.00    15.00      -1.54 -999.99   -1.54    0.00000     0.00  LINEAR    3.91851E-01    14.93    0.00000E+00     0.00
 -125.00    15.00      -0.77 -999.99   -0.77    0.00000     0.00  LINEAR    4.28214E-01    -2.54    0.00000E+00     0.00
 -120.00    15.00      -0.12 -999.99   -0.12    0.00000     0.00  LINEAR    4.61697E-01   -17.97    0.00000E+00     0.00
 -115.00    15.00       0.42 -999.99    0.42    0.00000     0.00  LINEAR    4.91407E-01   -31.25    0.00000E+00     0.00
 -110.00    15.00       0.86 -999.99    0.86    0.00000     0.00  LINEAR    5.16626E-01   -42.25    0.00000E+00     0.00
 -105.00    15.00       1.19 -999.99    1.19    0.00000     0.00  LINEAR    5.36798E-01   -50.89    0.00000E+00     0.00
 -100.00    15.00       1.43 -999.99    1.43    0.00000     0.00  LINEAR    5.51507E-01   -57.11    0.00000E+00     0.00
  -95.00    15.00       1.57 -999.99    1.57    0.00000     0.00  LINEAR    5.60454E-01   -60.86    0.00000E+00     0.00
  -90.00    15.00       1.61 -999.99    1.61    0.00000     0.00  LINEAR    5.63457E-01   -62.11    0.00000E+00     0.00
  -85.00    15.00       1.57 -999.99    1.57    0.00000     0.00  LINEAR    5.60454E-01   -60.86    0.00000E+00     0.00
  -80.00    15.00       1.43 -999.99    1.43    0.00000     0.00  LINEAR    5.51507E-01   -57.11    0.00000E+00     0.00
  -75.00    15.00       1.19 -999.99    1.19    0.00000     0.00  LINEAR    5.36798E-01   -50.89    0.00000E+00     0.00
  -70.00    15.00       0.86 -999.99    0.86    0.00000     0.00  LINEAR    5.16626E-01   -42.25    0.00000E+00     0.00
  -65.00    15.00       0.42 -999.99    0.42    0.00000     0.00  LINEAR    4.91407E-01   -31.25    0.00000E+00     0.00
  -60.00    15.00      -0.12 -999.99   -0.12    0.00000     0.00  LINEAR    4.61697E-01   -17.97    0.00000E+00     0.00
  -55.00    15.00      -0.77 -999.99   -0.77    0.00000     0.00  LINEAR    4.28214E-01    -2.54    0.00000E+00     0.00
  -50.00    15.00      -1.54 -999.99   -1.54    0.00000     0.00  LINEAR    3.91851E-01    14.93    0.00000E+00     0.00
  -45.00    15.00      -2.43 -999.99   -2.43    0.00000     0.00  LINEAR    3.53616E-01    34.30    0.00000E+00     0.00
  -40.00    15.00      -3.45 -999.99   -3.45    0.00000     0.00  LINEAR    3.14484E-01    55.41    0.00000E+00     0.00
  -35.00    15.00      -4.61 -999.99   -4.61    0.00000     0.00  LINEAR    2.75183E-01    78.14    0.00000E+00     0.00
  -30.00    15.00      -5.94 -999.99   -5.94    0.00000     0.00  LINEAR    2.36038E-01   102.36    0.00000E+00     0.00
  -25.00    15.00      -7.52 -999.99   -7.52    0.00000     0.00  LINEAR    1.96986E-01   127.90    0.00000E+00     0.00
  -20.00    15.00      -9.44 -999.99   -9.44    0.00000     0.00  LINEAR    1.57804E-01   154.53    0.00000E+00     0.00
  -15.00    15.00     -11.94 -999.99  -11.94    0.00000     0.00  LINEAR    1.18384E-01  -178.05    0.00000E+00     0.00
  -10.00    15.00     -15.47 -999.99  -15.47    0.00000     0.00  LINEAR    7.88393E-02  -150.16    0.00000E+00     0.00
   -5.00    15.00     -21.50 -999.99  -21.50    0.00000     0.00  LINEAR    3.93617E-02  -122.06    0.00000E+00     0.00
    0.00    15.00    -999.99 -999.99 -999.99    0.00000     0.00            0.00000E+00     0.00    0.00000E+00     0.00
 -180.00    20.00    -999.99 -999.99 -999.99    0.00000     0.00            4.60145E-12    86.07    0.00000E+00     0.00
 -175.00    20.00     -21.50 -999.99  -21.50    0.00000     0.00  LINEAR    3.93584E-02  -131.14    0.00000E+00     0.00
 -170.00    20.00     -15.48 -999.99  -15.48    0.00000     0.00  LINEAR    7.87508E-02  -168.41    0.00000E+00     0.00
 -165.00    20.00     -11.97 -999.99  -11.97    0.00000     0.00  LINEAR    1.17891E-01   154.54    0.00000E+00     0.00
 -160.00    20.00      -9.51 -999.99   -9.51    0.00000     0.00  LINEAR    1.56584E-01   118.23    0.00000E+00     0.00
 -155.00    20.00      -7.59 -999.99   -7.59    0.00000     0.00  LINEAR    1.95277E-01    83.15    0.00000E+00     0.00
 -150.00    20.00      -5.99 -999.99   -5.99    0.00000     0.00  LINEAR    2.34717E-01    49.57    0.00000E+00     0.00
 -145.00    20.00      -4.62 -999.99   -4.62    0.00000     0.00  LINEAR    2.75007E-01    17.66    0.00000E+00     0.00
 -140.00    20.00      -3.43 -999.99   -3.43    0.00000     0.00  LINEAR    3.15194E-01   -12.42    0.00000E+00     0.00
 -135.00    20.00      -2.43 -999.99   -2.43    0.00000     0.00  LINEAR    3.53817E-01   -40.42    0.00000E+00     0.00
 -130.00    20.00      -1.59 -999.99   -1.59    0.00000     0.00  LINEAR    3.89717E-01   -66.05    0.00000E+00     0.00
 -125.00    20.00      -0.89 -999.99   -0.89    0.00000     0.00  LINEAR    4.22368E-01   -89.10    0.00000E+00     0.00
 -120.00    20.00      -0.31 -999.99   -0.31    0.00000     0.00  LINEAR    4.51652E-01  -109.41    0.00000E+00     0.00
 -115.00    20.00       0.18 -999.99    0.18    0.00000     0.00  LINEAR    4.77475E-01  -126.85    0.00000E+00     0.00
 -110.00    20.00       0.57 -999.99    0.57    0.00000     0.00  LINEAR    4.99557E-01  -141.32    0.00000E+00     0.00
 -105.00    20.00       0.87 -999.99    0.87    0.00000     0.00  LINEAR    5.17451E-01  -152.71    0.00000E+00     0.00
 -100.00    20.00       1.09 -999.99    1.09    0.00000     0.00  LINEAR    5.30664E-01  -160.93    0.00000E+00     0.00
  -95.00    20.00       1.22 -999.99    1.22    0.00000     0.00  LINEAR    5.38776E-01  -165.89    0.00000E+00     0.00
  -90.00    20.00       1.27 -999.99    1.27    0.00000     0.00  LINEAR    5.41511E-01  -167.55    0.00000E+00     0.00
  -85.00    20.00       1.22 -999.99    1.22    0.00000     0.00  LINEAR    5.38776E-01  -165.89    0.00000E+00     0.00
  -80.00    20.00       1.09 -999.99    1.09    0.00000     0.00  LINEAR    5.30664E-01  -160.93    0.00000E+00     0.00
  -75.00    20.00       0.87 -999.99    0.87    0.00000     0.00  LINEAR    5.17451E-01  -152.71    0.00000E+00     0.00
  -70.00    20.00       0.57 -999.99    0.57    0.00000     0.00  LINEAR    4.99557E-01  -141.32    0.00000E+00     0.00
  -65.00    20.00       0.18 -999.99    0.18    0.00000     0.00  LINEAR    4.77475E-01  -126.85    0.00000E+00     0.00
  -60.00    20.00      -0.31 -999.99   -0.31    0.00000     0.00  LINEAR    4.51652E-01  -109.41    0.00000E+00     0.00
  -55.00    20.00      -0.89 -999.99   -0.89    0.00000     0.00  LINEAR    4.22368E-01   -89.10    0.00000E+00     0.00
  -50.00    20.00      -1.59 -999.99   -1.59    0.00000     0.00  LINEAR    3.89717E-01   -66.05    0.00000E+00     0.00
  -45.00    20.00      -2.43 -999.99   -2.43    0.00000     0.00  LINEAR    3.53817E-01   -40.42    0.00000E+00     0.00
  -40.00    20.00      -3.43 -999.99   -3.43    0.00000     0.00  LINEAR    3.15194E-01   -12.42    0.00000E+00     0.00
  -35.00    20.00      -4.62 -999.99   -4.62    0.00000     0.00  LINEAR    2.75007E-01    17.66    0.00000E+00     0.00
  -30.00    20.00      -5.99 -999.99   -5.99    0.00000     0.00  LINEAR    2.34717E-01    49.57    0.00000E+00     0.00
  -25.00    20.00      -7.59 -999.99   -7.59    0.00000     0.00  LINEAR    1.95277E-01    83.15    0.00000E+00     0.00
  -20.00    20.00      -9.51 -999.99   -9.51    0.00000     0.00  LINEAR    1.56584E-01   118.23    0.00000E+00     0.00
  -15.00    20.00     -11.97 -999.99  -11.97    0.00000     0.00  LINEAR    1.17891E-01   154.54    0.00000E+00     0.00
  -10.00    20.00     -15.48 -999.99  -15.48    0.00000     0.00  LINEAR    7.87508E-02  -168.41    0.00000E+00     0.00
   -5.00    20.00     -21.50 -999.99  -21.50    0.00000     0.00  LINEAR    3.93584E-02  -131.14    0.00000E+00     0.00
    0.00    20.00    -999.99 -999.99 -999.99    0.00000     0.00            0.00000E+00     0.00    0.00000E+00     0.00
 -180.00    25.00    -999.99 -999.99 -999.99    0.00000     0.00            4.60145E-12    86.07    0.00000E+00     0.00
 -175.00    25.00     -21.50 -999.99  -21.50    0.00000     0.00  LINEAR    3.93525E-02  -139.95    0.00000E+00     0.00
 -170.00    25.00     -15.50 -999.99  -15.50    0.00000     0.00  LINEAR    7.85957E-02   173.83    0.00000E+00     0.00
 -165.00    25.00     -12.02 -999.99  -12.02    0.00000     0.00  LINEAR    1.17231E-01   127.93    0.00000E+00     0.00
 -160.00    25.00      -9.57 -999.99   -9.57    0.00000     0.00  LINEAR    1.55559E-01    83.17    0.00000E+00     0.00
 -155.00    25.00      -7.61 -999.99   -7.61    0.00000     0.00  LINEAR    1.94830E-01    39.97    0.00000E+00     0.00
 -150.00    25.00      -5.97 -999.99   -5.97    0.00000     0.00  LINEAR    2.35210E-01    -1.53    0.00000E+00     0.00
 -145.00    25.00      -4.62 -999.99   -4.62    0.00000     0.00  LINEAR    2.74904E-01   -41.08    0.00000E+00     0.00
 -140.00    25.00      -3.52 -999.99   -3.52    0.00000     0.00  LINEAR    3.11988E-01   -78.24    0.00000E+00     0.00
 -135.00    25.00      -2.62 -999.99   -2.62    0.00000     0.00  LINEAR    3.46150E-01  -112.67    0.00000E+00     0.00
 -130.00    25.00      -1.85 -999.99   -1.85    0.00000     0.00  LINEAR    3.78197E-01  -144.21    0.00000E+00     0.00
 -125.00    25.00      -1.18 -999.99   -1.18    0.00000     0.00  LINEAR    4.08601E-01  -172.78    0.00000E+00     0.00
 -120.00    25.00      -0.60 -999.99   -0.60    0.00000     0.00  LINEAR    4.36939E-01   161.79    0.00000E+00     0.00
 -115.00    25.00      -0.10 -999.99   -0.10    0.00000     0.00  LINEAR    4.62328E-01   139.77    0.00000E+00     0.00
 -110.00    25.00       0.29 -999.99    0.29    0.00000     0.00  LINEAR    4.83956E-01   121.42    0.00000E+00     0.00
 -105.00    25.00       0.60 -999.99    0.60    0.00000     0.00  LINEAR    5.01262E-01   106.97    0.00000E+00     0.00
 -100.00    25.00       0.81 -999.99    0.81    0.00000     0.00  LINEAR    5.13878E-01    96.57    0.00000E+00     0.00
  -95.00    25.00       0.94 -999.99    0.94    0.00000     0.00  LINEAR    5.21554E-01    90.30    0.00000E+00     0.00
  -90.00    25.00       0.98 -999.99    0.98    0.00000     0.00  LINEAR    5.24132E-01    88.21    0.00000E+00     0.00
  -85.00    25.00       0.94 -999.99    0.94    0.00000     0.00  LINEAR    5.21554E-01    90.30    0.00000E+00     0.00
  -80.00    25.00       0.81 -999.99    0.81    0.00000     0.00  LINEAR    5.13878E-01    96.57    0.00000E+00     0.00
  -75.00    25.00       0.60 -999.99    0.60    0.00000     0.00  LINEAR    5.01262E-01   106.97    0.00000E+00     0.00
  -70.00    25.00       0.29 -999.99    0.29    0.00000     0.00  LINEAR    4.83956E-01   121.42    0.00000E+00     0.00
  -65.00    25.00      -0.10 -999.99   -0.10    0.00000     0.00  LINEAR    4.62328E-01   139.77    0.00000E+00     0.00
  -60.00    25.00      -0.60 -999.99   -0.60    0.00000     0.00  LINEAR    4.36939E-01   161.79    0.00000E+00     0.00
  -55.00    25.00      -1.18 -999.99   -1.18    0.00000     0.00  LINEAR    4.08601E-01  -172.78    0.00000E+00     0.00
  -50.00    25.00      -1.85 -999.99   -1.85    0.00000     0.00  LINEAR    3.78197E-01  -144.21    0.00000E+00     0.00
  -45.00    25.00      -2.62 -999.99   -2.62    0.00000     0.00  LINEAR    3.46150E-01  -112.67    0.00000E+00     0.00
  -40.00    25.00      -3.52 -999.99   -3.52    0.00000     0.00  LINEAR    3.11988E-01   -78.24    0.00000E+00     0.00
  -35.00    25.00      -4.62 -999.99   -4.62    0.00000     0.00  LINEAR    2.74904E-01   -41.08    0.00000E+00     0.00
  -30.00    25.00      -5.97 -999.99   -5.97    0.00000     0.00  LINEAR    2.35210E-01    -1.53    0.00000E+00     0.00
  -25.00    25.00      -7.61 -999.99   -7.61    0.00000     0.00  LINEAR    1.94830E-01    39.97    0.00000E+00     0.00
  -20.00    25.00      -9.57 -999.99   -9.57    0.00000     0.00  LINEAR    1.55559E-01    83.17    0.00000E+00     0.00
  -15.00    25.00     -12.02 -999.99  -12.02    0.00000     0.00  LINEAR    1.17231E-01   127.93    0.00000E+00     0.00
  -10.00    25.00     -15.50 -999.99  -15.50    0.00000     0.00  LINEAR    7.85957E-02   173.83    0.00000E+00     0.00
   -5.00    25.00     -21.50 -999.99  -21.50    0.00000     0.00  LINEAR    3.93525E-02  -139.95    0.00000E+00     0.00
    0.00    25.00    -999.99 -999.99 -999.99    0.00000     0.00            0.00000E+00     0.00    0.00000E+00     0.00
 -180.00    30.00    -999.99 -999.99 -999.99    0.00000     0.00            4.60145E-12    86.07    0.00000E+00     0.00
 -175.00    30.00     -21.51 -999.99  -21.51    0.00000     0.00  LINEAR    3.93427E-02  -148.43    0.00000E+00     0.00
 -170.00    30.00     -15.52 -999.99  -15.52    0.00000     0.00  LINEAR    7.83791E-02   156.72    0.00000E+00     0.00
 -165.00    30.00     -12.07 -999.99  -12.07    0.00000     0.00  LINEAR    1.16590E-01   102.42    0.00000E+00     0.00
 -160.00    30.00      -9.59 -999.99   -9.59    0.00000     0.00  LINEAR    1.55189E-01    49.61    0.00000E+00     0.00
 -155.00    30.00      -7.59 -999.99   -7.59    0.00000     0.00  LINEAR    1.95221E-01    -1.51    0.00000E+00     0.00
 -150.00    30.00      -6.00 -999.99   -6.00    0.00000     0.00  LINEAR    2.34532E-01   -50.71    0.00000E+00     0.00
 -145.00    30.00      -4.76 -999.99   -4.76    0.00000     0.00  LINEAR    2.70653E-01   -97.39    0.00000E+00     0.00
 -140.00    30.00      -3.74 -999.99   -3.74    0.00000     0.00  LINEAR    3.04235E-01  -141.18    0.00000E+00     0.00
 -135.00    30.00      -2.85 -999.99   -2.85    0.00000     0.00  LINEAR    3.36995E-01   177.85    0.00000E+00     0.00
 -130.00    30.00      -2.07 -999.99   -2.07    0.00000     0.00  LINEAR    3.68823E-01   139.83    0.00000E+00     0.00
 -125.00    30.00      -1.40 -999.99   -1.40    0.00000     0.00  LINEAR    3.98437E-01   105.28    0.00000E+00     0.00
 -120.00    30.00      -0.84 -999.99   -0.84    0.00000     0.00  LINEAR    4.25044E-01    74.78    0.00000E+00     0.00
 -115.00    30.00      -0.37 -999.99   -0.37    0.00000     0.00  LINEAR    4.48521E-01    48.73    0.00000E+00     0.00
 -110.00    30.00       0.01 -999.99    0.01    0.00000     0.00  LINEAR    4.68751E-01    27.28    0.00000E+00     0.00
 -105.00    30.00       0.32 -999.99    0.32    0.00000     0.00  LINEAR    4.85296E-01    10.51    0.00000E+00     0.00
 -100.00    30.00       0.53 -999.99    0.53    0.00000     0.00  LINEAR    4.97571E-01    -1.53    0.00000E+00     0.00
  -95.00    30.00       0.66 -999.99    0.66    0.00000     0.00  LINEAR    5.05108E-01    -8.79    0.00000E+00     0.00
  -90.00    30.00       0.71 -999.99    0.71    0.00000     0.00  LINEAR    5.07646E-01   -11.22    0.00000E+00     0.00
  -85.00    30.00       0.66 -999.99    0.66    0.00000     0.00  LINEAR    5.05108E-01    -8.79    0.00000E+00     0.00
  -80.00    30.00       0.53 -999.99    0.53    0.00000     0.00  LINEAR    4.97571E-01    -1.53    0.00000E+00     0.00
  -75.00    30.00       0.32 -999.99    0.32    0.00000     0.00  LINEAR    4.85296E-01    10.51    0.00000E+00     0.00
  -70.00    30.00       0.01 -999.99    0.01    0.00000     0.00  LINEAR    4.68751E-01    27.28    0.00000E+00     0.00
  -65.00    30.00      -0.37 -999.99   -0.37    0.00000     0.00  LINEAR    4.48521E-01    48.73    0.00000E+00     0.00
  -60.00    30.00      -0.84 -999.99   -0.84    0.00000     0.00  LINEAR    4.25044E-01    74.78    0.00000E+00     0.00
  -55.00    30.00      -1.40 -999.99   -1.40    0.00000     0.00  LINEAR    3.98437E-01   105.28    0.00000E+00     0.00
  -50.00    30.00      -2.07 -999.99   -2.07    0.00000     0.00  LINEAR    3.68823E-01   139.83    0.00000E+00     0.00
  -45.00    30.00      -2.85 -999.99   -2.85    0.00000     0.00  LINEAR    3.36995E-01   177.85    0.00000E+00     0.00
  -40.00    30.00      -3.74 -999.99   -3.74    0.00000     0.00  LINEAR    3.04235E-01  -141.18    0.00000E+00     0.00
  -35.00    30.00      -4.76 -999.99   -4.76    0.00000     0.00  LINEAR    2.70653E-01   -97.39    0.00000E+00     0.00
  -30.00    30.00      -6.00 -999.99   -6.00    0.00000     0.00  LINEAR    2.34532E-01   -50.71    0.00000E+00     0.00
  -25.00    30.00      -7.59 -999.99   -7.59    0.00000     0.00  LINEAR    1.95221E-01    -1.51    0.00000E+00     0.00
  -20.00    30.00      -9.59 -999.99   -9.59    0.00000     0.00  LINEAR    1.55189E-01    49.61    0.00000E+00     0.00
  -15.00    30.00     -12.07 -999.99  -12.07    0.00000     0.00  LINEAR    1.16590E-01   102.42    0.00000E+00     0.00
  -10.00    30.00     -15.52 -999.99  -15.52    0.00000     0.00  LINEAR    7.83791E-02   156.72    0.00000E+00     0.00
   -5.00    30.00     -21.51 -999.99  -21.51    0.00000     0.00  LINEAR    3.93427E-02  -148.43    0.00000E+00     0.00
    0.00    30.00    -999.99 -999.99 -999.99    0.00000     0.00            0.00000E+00     0.00    0.00000E+00     0.00
 -180.00    35.00    -999.99 -999.99 -999.99    0.00000     0.00            4.60145E-12    86.07    0.00000E+00     0.00
 -175.00    35.00     -21.51 -999.99  -21.51    0.00000     0.00  LINEAR    3.93283E-02  -156.52    0.00000E+00     0.00
 -170.00    35.00     -15.55 -999.99  -15.55    0.00000     0.00  LINEAR    7.81233E-02   140.42    0.00000E+00     0.00
 -165.00    35.00     -12.10 -999.99  -12.10    0.00000     0.00  LINEAR    1.16139E-01    78.22    0.00000E+00     0.00
 -160.00    35.00      -9.58 -999.99   -9.58    0.00000     0.00  LINEAR    1.55360E-01    17.72    0.00000E+00     0.00
 -155.00    35.00      -7.61 -999.99   -7.61    0.00000     0.00  LINEAR    1.94952E-01   -41.03    0.00000E+00     0.00
 -150.00    35.00      -6.12 -999.99   -6.12    0.00000     0.00  LINEAR    2.31253E-01   -97.36    0.00000E+00     0.00
 -145.00    35.00      -4.95 -999.99   -4.95    0.00000     0.00  LINEAR    2.64761E-01  -150.79    0.00000E+00     0.00
 -140.00    35.00      -3.92 -999.99   -3.92    0.00000     0.00  LINEAR    2.97955E-01   158.42    0.00000E+00     0.00
 -135.00    35.00      -3.03 -999.99   -3.03    0.00000     0.00  LINEAR    3.30174E-01   110.53    0.00000E+00     0.00
 -130.00    35.00      -2.28 -999.99   -2.28    0.00000     0.00  LINEAR    3.60032E-01    66.57    0.00000E+00     0.00
[...]
  -70.00   340.00       0.57 -999.99    0.57    0.00000     0.00  LINEAR    4.99881E-01   -52.16    0.00000E+00     0.00
  -65.00   340.00       0.18 -999.99    0.18    0.00000     0.00  LINEAR    4.77529E-01   -66.19    0.00000E+00     0.00
  -60.00   340.00      -0.31 -999.99   -0.31    0.00000     0.00  LINEAR    4.51483E-01   -83.14    0.00000E+00     0.00
  -55.00   340.00      -0.90 -999.99   -0.90    0.00000     0.00  LINEAR    4.22064E-01  -102.92    0.00000E+00     0.00
  -50.00   340.00      -1.60 -999.99   -1.60    0.00000     0.00  LINEAR    3.89369E-01  -125.44    0.00000E+00     0.00
  -45.00   340.00      -2.44 -999.99   -2.44    0.00000     0.00  LINEAR    3.53479E-01  -150.56    0.00000E+00     0.00
  -40.00   340.00      -3.44 -999.99   -3.44    0.00000     0.00  LINEAR    3.14881E-01  -178.06    0.00000E+00     0.00
  -35.00   340.00      -4.63 -999.99   -4.63    0.00000     0.00  LINEAR    2.74737E-01   152.34    0.00000E+00     0.00
  -30.00   340.00      -6.00 -999.99   -6.00    0.00000     0.00  LINEAR    2.34540E-01   120.90    0.00000E+00     0.00
  -25.00   340.00      -7.59 -999.99   -7.59    0.00000     0.00  LINEAR    1.95240E-01    87.78    0.00000E+00     0.00
  -20.00   340.00      -9.50 -999.99   -9.50    0.00000     0.00  LINEAR    1.56673E-01    53.10    0.00000E+00     0.00
  -15.00   340.00     -11.96 -999.99  -11.96    0.00000     0.00  LINEAR    1.18024E-01    17.13    0.00000E+00     0.00
  -10.00   340.00     -15.47 -999.99  -15.47    0.00000     0.00  LINEAR    7.88436E-02   -19.66    0.00000E+00     0.00
   -5.00   340.00     -21.50 -999.99  -21.50    0.00000     0.00  LINEAR    3.93870E-02   -56.77    0.00000E+00     0.00
    0.00   340.00    -999.99 -999.99 -999.99    0.00000     0.00            0.00000E+00     0.00    0.00000E+00     0.00
 -180.00   345.00    -999.99 -999.99 -999.99    0.00000     0.00            4.60145E-12    86.07    0.00000E+00     0.00
 -175.00   345.00     -21.50 -999.99  -21.50    0.00000     0.00  LINEAR    3.93839E-02   -65.83    0.00000E+00     0.00
 -170.00   345.00     -15.46 -999.99  -15.46    0.00000     0.00  LINEAR    7.89190E-02   -37.83    0.00000E+00     0.00
 -165.00   345.00     -11.93 -999.99  -11.93    0.00000     0.00  LINEAR    1.18529E-01   -10.09    0.00000E+00     0.00
 -160.00   345.00      -9.43 -999.99   -9.43    0.00000     0.00  LINEAR    1.57983E-01    17.12    0.00000E+00     0.00
 -155.00   345.00      -7.51 -999.99   -7.51    0.00000     0.00  LINEAR    1.97136E-01    43.49    0.00000E+00     0.00
 -150.00   345.00      -5.94 -999.99   -5.94    0.00000     0.00  LINEAR    2.36091E-01    68.74    0.00000E+00     0.00
 -145.00   345.00      -4.61 -999.99   -4.61    0.00000     0.00  LINEAR    2.75101E-01    92.63    0.00000E+00     0.00
 -140.00   345.00      -3.46 -999.99   -3.46    0.00000     0.00  LINEAR    3.14267E-01   115.04    0.00000E+00     0.00
 -135.00   345.00      -2.44 -999.99   -2.44    0.00000     0.00  LINEAR    3.53294E-01   135.83    0.00000E+00     0.00
 -130.00   345.00      -1.55 -999.99   -1.55    0.00000     0.00  LINEAR    3.91459E-01   154.88    0.00000E+00     0.00
 -125.00   345.00      -0.78 -999.99   -0.78    0.00000     0.00  LINEAR    4.27779E-01   172.06    0.00000E+00     0.00
 -120.00   345.00      -0.13 -999.99   -0.13    0.00000     0.00  LINEAR    4.61231E-01  -172.77    0.00000E+00     0.00
 -115.00   345.00       0.42 -999.99    0.42    0.00000     0.00  LINEAR    4.90919E-01  -159.74    0.00000E+00     0.00
 -110.00   345.00       0.85 -999.99    0.85    0.00000     0.00  LINEAR    5.16119E-01  -148.95    0.00000E+00     0.00
 -105.00   345.00       1.18 -999.99    1.18    0.00000     0.00  LINEAR    5.36280E-01  -140.49    0.00000E+00     0.00
 -100.00   345.00       1.42 -999.99    1.42    0.00000     0.00  LINEAR    5.50983E-01  -134.40    0.00000E+00     0.00
  -95.00   345.00       1.56 -999.99    1.56    0.00000     0.00  LINEAR    5.59928E-01  -130.73    0.00000E+00     0.00
  -90.00   345.00       1.61 -999.99    1.61    0.00000     0.00  LINEAR    5.62930E-01  -129.51    0.00000E+00     0.00
  -85.00   345.00       1.56 -999.99    1.56    0.00000     0.00  LINEAR    5.59928E-01  -130.73    0.00000E+00     0.00
  -80.00   345.00       1.42 -999.99    1.42    0.00000     0.00  LINEAR    5.50983E-01  -134.40    0.00000E+00     0.00
  -75.00   345.00       1.18 -999.99    1.18    0.00000     0.00  LINEAR    5.36280E-01  -140.49    0.00000E+00     0.00
  -70.00   345.00       0.85 -999.99    0.85    0.00000     0.00  LINEAR    5.16119E-01  -148.95    0.00000E+00     0.00
  -65.00   345.00       0.42 -999.99    0.42    0.00000     0.00  LINEAR    4.90919E-01  -159.74    0.00000E+00     0.00
  -60.00   345.00      -0.13 -999.99   -0.13    0.00000     0.00  LINEAR    4.61231E-01  -172.77    0.00000E+00     0.00
  -55.00   345.00      -0.78 -999.99   -0.78    0.00000     0.00  LINEAR    4.27779E-01   172.06    0.00000E+00     0.00
  -50.00   345.00      -1.55 -999.99   -1.55    0.00000     0.00  LINEAR    3.91459E-01   154.88    0.00000E+00     0.00
  -45.00   345.00      -2.44 -999.99   -2.44    0.00000     0.00  LINEAR    3.53294E-01   135.83    0.00000E+00     0.00
  -40.00   345.00      -3.46 -999.99   -3.46    0.00000     0.00  LINEAR    3.14267E-01   115.04    0.00000E+00     0.00
  -35.00   345.00      -4.61 -999.99   -4.61    0.00000     0.00  LINEAR    2.75101E-01    92.63    0.00000E+00     0.00
  -30.00   345.00      -5.94 -999.99   -5.94    0.00000     0.00  LINEAR    2.36091E-01    68.74    0.00000E+00     0.00
  -25.00   345.00      -7.51 -999.99   -7.51    0.00000     0.00  LINEAR    1.97136E-01    43.49    0.00000E+00     0.00
  -20.00   345.00      -9.43 -999.99   -9.43    0.00000     0.00  LINEAR    1.57983E-01    17.12    0.00000E+00     0.00
  -15.00   345.00     -11.93 -999.99  -11.93    0.00000     0.00  LINEAR    1.18529E-01   -10.09    0.00000E+00     0.00
  -10.00   345.00     -15.46 -999.99  -15.46    0.00000     0.00  LINEAR    7.89190E-02   -37.83    0.00000E+00     0.00
   -5.00   345.00     -21.50 -999.99  -21.50    0.00000     0.00  LINEAR    3.93839E-02   -65.83    0.00000E+00     0.00
    0.00   345.00    -999.99 -999.99 -999.99    0.00000     0.00            0.00000E+00     0.00    0.00000E+00     0.00
 -180.00   350.00    -999.99 -999.99 -999.99    0.00000     0.00            4.60145E-12    86.07    0.00000E+00     0.00
 -175.00   350.00     -21.50 -999.99  -21.50    0.00000     0.00  LINEAR    3.93789E-02   -75.08    0.00000E+00     0.00
 -170.00   350.00     -15.46 -999.99  -15.46    0.00000     0.00  LINEAR    7.89337E-02   -56.35    0.00000E+00     0.00
 -165.00   350.00     -11.91 -999.99  -11.91    0.00000     0.00  LINEAR    1.18751E-01   -37.84    0.00000E+00     0.00
 -160.00   350.00      -9.39 -999.99   -9.39    0.00000     0.00  LINEAR    1.58805E-01   -19.69    0.00000E+00     0.00
 -155.00   350.00      -7.43 -999.99   -7.43    0.00000     0.00  LINEAR    1.98967E-01    -2.04    0.00000E+00     0.00
 -150.00   350.00      -5.83 -999.99   -5.83    0.00000     0.00  LINEAR    2.39041E-01    14.93    0.00000E+00     0.00
 -145.00   350.00      -4.50 -999.99   -4.50    0.00000     0.00  LINEAR    2.78797E-01    31.08    0.00000E+00     0.00
 -140.00   350.00      -3.36 -999.99   -3.36    0.00000     0.00  LINEAR    3.17975E-01    46.25    0.00000E+00     0.00
 -135.00   350.00      -2.37 -999.99   -2.37    0.00000     0.00  LINEAR    3.56262E-01    60.32    0.00000E+00     0.00
 -130.00   350.00      -1.51 -999.99   -1.51    0.00000     0.00  LINEAR    3.93252E-01    73.19    0.00000E+00     0.00
 -125.00   350.00      -0.77 -999.99   -0.77    0.00000     0.00  LINEAR    4.28419E-01    84.75    0.00000E+00     0.00
 -120.00   350.00      -0.13 -999.99   -0.13    0.00000     0.00  LINEAR    4.61112E-01    94.94    0.00000E+00     0.00
 -115.00   350.00       0.41 -999.99    0.41    0.00000     0.00  LINEAR    4.90592E-01   103.68    0.00000E+00     0.00
 -110.00   350.00       0.85 -999.99    0.85    0.00000     0.00  LINEAR    5.16078E-01   110.92    0.00000E+00     0.00
 -105.00   350.00       1.19 -999.99    1.19    0.00000     0.00  LINEAR    5.36818E-01   116.61    0.00000E+00     0.00
 -100.00   350.00       1.44 -999.99    1.44    0.00000     0.00  LINEAR    5.52152E-01   120.70    0.00000E+00     0.00
  -95.00   350.00       1.58 -999.99    1.58    0.00000     0.00  LINEAR    5.61569E-01   123.17    0.00000E+00     0.00
  -90.00   350.00       1.63 -999.99    1.63    0.00000     0.00  LINEAR    5.64745E-01   123.99    0.00000E+00     0.00
  -85.00   350.00       1.58 -999.99    1.58    0.00000     0.00  LINEAR    5.61569E-01   123.17    0.00000E+00     0.00
  -80.00   350.00       1.44 -999.99    1.44    0.00000     0.00  LINEAR    5.52152E-01   120.70    0.00000E+00     0.00
  -75.00   350.00       1.19 -999.99    1.19    0.00000     0.00  LINEAR    5.36818E-01   116.61    0.00000E+00     0.00
  -70.00   350.00       0.85 -999.99    0.85    0.00000     0.00  LINEAR    5.16078E-01   110.92    0.00000E+00     0.00
  -65.00   350.00       0.41 -999.99    0.41    0.00000     0.00  LINEAR    4.90592E-01   103.68    0.00000E+00     0.00
  -60.00   350.00      -0.13 -999.99   -0.13    0.00000     0.00  LINEAR    4.61112E-01    94.94    0.00000E+00     0.00
  -55.00   350.00      -0.77 -999.99   -0.77    0.00000     0.00  LINEAR    4.28419E-01    84.75    0.00000E+00     0.00
  -50.00   350.00      -1.51 -999.99   -1.51    0.00000     0.00  LINEAR    3.93252E-01    73.19    0.00000E+00     0.00
  -45.00   350.00      -2.37 -999.99   -2.37    0.00000     0.00  LINEAR    3.56262E-01    60.32    0.00000E+00     0.00
  -40.00   350.00      -3.36 -999.99   -3.36    0.00000     0.00  LINEAR    3.17975E-01    46.25    0.00000E+00     0.00
  -35.00   350.00      -4.50 -999.99   -4.50    0.00000     0.00  LINEAR    2.78797E-01    31.08    0.00000E+00     0.00
  -30.00   350.00      -5.83 -999.99   -5.83    0.00000     0.00  LINEAR    2.39041E-01    14.93    0.00000E+00     0.00
  -25.00   350.00      -7.43 -999.99   -7.43    0.00000     0.00  LINEAR    1.98967E-01    -2.04    0.00000E+00     0.00
  -20.00   350.00      -9.39 -999.99   -9.39    0.00000     0.00  LINEAR    1.58805E-01   -19.69    0.00000E+00     0.00
  -15.00   350.00     -11.91 -999.99  -11.91    0.00000     0.00  LINEAR    1.18751E-01   -37.84    0.00000E+00     0.00
  -10.00   350.00     -15.46 -999.99  -15.46    0.00000     0.00  LINEAR    7.89337E-02   -56.35    0.00000E+00     0.00
   -5.00   350.00     -21.50 -999.99  -21.50    0.00000     0.00  LINEAR    3.93789E-02   -75.08    0.00000E+00     0.00
    0.00   350.00    -999.99 -999.99 -999.99    0.00000     0.00            0.00000E+00     0.00    0.00000E+00     0.00
 -180.00   355.00    -999.99 -999.99 -999.99    0.00000     0.00            4.60145E-12    86.07    0.00000E+00     0.00
 -175.00   355.00     -21.50 -999.99  -21.50    0.00000     0.00  LINEAR    3.93735E-02   -84.47    0.00000E+00     0.00
 -170.00   355.00     -15.46 -999.99  -15.46    0.00000     0.00  LINEAR    7.89172E-02   -75.09    0.00000E+00     0.00
 -165.00   355.00     -11.91 -999.99  -11.91    0.00000     0.00  LINEAR    1.18763E-01   -65.84    0.00000E+00     0.00
 -160.00   355.00      -9.38 -999.99   -9.38    0.00000     0.00  LINEAR    1.58986E-01   -56.81    0.00000E+00     0.00
 -155.00   355.00      -7.40 -999.99   -7.40    0.00000     0.00  LINEAR    1.99576E-01   -48.04    0.00000E+00     0.00
 -150.00   355.00      -5.78 -999.99   -5.78    0.00000     0.00  LINEAR    2.40423E-01   -39.61    0.00000E+00     0.00
 -145.00   355.00      -4.42 -999.99   -4.42    0.00000     0.00  LINEAR    2.81304E-01   -31.58    0.00000E+00     0.00
 -140.00   355.00      -3.25 -999.99   -3.25    0.00000     0.00  LINEAR    3.21872E-01   -24.01    0.00000E+00     0.00
 -135.00   355.00      -2.24 -999.99   -2.24    0.00000     0.00  LINEAR    3.61665E-01   -16.97    0.00000E+00     0.00
 -130.00   355.00      -1.36 -999.99   -1.36    0.00000     0.00  LINEAR    4.00109E-01   -10.52    0.00000E+00     0.00
 -125.00   355.00      -0.60 -999.99   -0.60    0.00000     0.00  LINEAR    4.36543E-01    -4.69    0.00000E+00     0.00
 -120.00   355.00       0.04 -999.99    0.04    0.00000     0.00  LINEAR    4.70237E-01     0.45    0.00000E+00     0.00
 -115.00   355.00       0.58 -999.99    0.58    0.00000     0.00  LINEAR    5.00435E-01     4.87    0.00000E+00     0.00
 -110.00   355.00       1.02 -999.99    1.02    0.00000     0.00  LINEAR    5.26388E-01     8.54    0.00000E+00     0.00
 -105.00   355.00       1.36 -999.99    1.36    0.00000     0.00  LINEAR    5.47402E-01    11.42    0.00000E+00     0.00
 -100.00   355.00       1.60 -999.99    1.60    0.00000     0.00  LINEAR    5.62879E-01    13.49    0.00000E+00     0.00
  -95.00   355.00       1.75 -999.99    1.75    0.00000     0.00  LINEAR    5.72359E-01    14.74    0.00000E+00     0.00
  -90.00   355.00       1.80 -999.99    1.80    0.00000     0.00  LINEAR    5.75552E-01    15.16    0.00000E+00     0.00
  -85.00   355.00       1.75 -999.99    1.75    0.00000     0.00  LINEAR    5.72359E-01    14.74    0.00000E+00     0.00
  -80.00   355.00       1.60 -999.99    1.60    0.00000     0.00  LINEAR    5.62879E-01    13.49    0.00000E+00     0.00
  -75.00   355.00       1.36 -999.99    1.36    0.00000     0.00  LINEAR    5.47402E-01    11.42    0.00000E+00     0.00
  -70.00   355.00       1.02 -999.99    1.02    0.00000     0.00  LINEAR    5.26388E-01     8.54    0.00000E+00     0.00
  -65.00   355.00       0.58 -999.99    0.58    0.00000     0.00  LINEAR    5.00435E-01     4.87    0.00000E+00     0.00
  -60.00   355.00       0.04 -999.99    0.04    0.00000     0.00  LINEAR    4.70237E-01     0.45    0.00000E+00     0.00
  -55.00   355.00      -0.60 -999.99   -0.60    0.00000     0.00  LINEAR    4.36543E-01    -4.69    0.00000E+00     0.00
  -50.00   355.00      -1.36 -999.99   -1.36    0.00000     0.00  LINEAR    4.00109E-01   -10.52    0.00000E+00     0.00
  -45.00   355.00      -2.24 -999.99   -2.24    0.00000     0.00  LINEAR    3.61665E-01   -16.97    0.00000E+00     0.00
  -40.00   355.00      -3.25 -999.99   -3.25    0.00000     0.00  LINEAR    3.21872E-01   -24.01    0.00000E+00     0.00
  -35.00   355.00      -4.42 -999.99   -4.42    0.00000     0.00  LINEAR    2.81304E-01   -31.58    0.00000E+00     0.00
  -30.00   355.00      -5.78 -999.99   -5.78    0.00000     0.00  LINEAR    2.40423E-01   -39.61    0.00000E+00     0.00
  -25.00   355.00      -7.40 -999.99   -7.40    0.00000     0.00  LINEAR    1.99576E-01   -48.04    0.00000E+00     0.00
  -20.00   355.00      -9.38 -999.99   -9.38    0.00000     0.00  LINEAR    1.58986E-01   -56.81    0.00000E+00     0.00
  -15.00   355.00     -11.91 -999.99  -11.91    0.00000     0.00  LINEAR    1.18763E-01   -65.84    0.00000E+00     0.00
  -10.00   355.00     -15.46 -999.99  -15.46    0.00000     0.00  LINEAR    7.89172E-02   -75.09    0.00000E+00     0.00
   -5.00   355.00     -21.50 -999.99  -21.50    0.00000     0.00  LINEAR    3.93735E-02   -84.47    0.00000E+00     0.00
    0.00   355.00    -999.99 -999.99 -999.99    0.00000     0.00            0.00000E+00     0.00    0.00000E+00     0.00
 -180.00   360.00    -999.99 -999.99 -999.99    0.00000     0.00            4.60145E-12    86.07    0.00000E+00     0.00
 -175.00   360.00     -21.50 -999.99  -21.50    0.00000     0.00  LINEAR    3.93690E-02   -93.93    0.00000E+00     0.00
 -170.00   360.00     -15.46 -999.99  -15.46    0.00000     0.00  LINEAR    7.88974E-02   -93.94    0.00000E+00     0.00
 -165.00   360.00     -11.91 -999.99  -11.91    0.00000     0.00  LINEAR    1.18718E-01   -93.95    0.00000E+00     0.00
 -160.00   360.00      -9.38 -999.99   -9.38    0.00000     0.00  LINEAR    1.58912E-01   -93.96    0.00000E+00     0.00
 -155.00   360.00      -7.41 -999.99   -7.41    0.00000     0.00  LINEAR    1.99483E-01   -93.98    0.00000E+00     0.00
 -150.00   360.00      -5.79 -999.99   -5.79    0.00000     0.00  LINEAR    2.40342E-01   -94.00    0.00000E+00     0.00
 -145.00   360.00      -4.42 -999.99   -4.42    0.00000     0.00  LINEAR    2.81283E-01   -94.02    0.00000E+00     0.00
 -140.00   360.00      -3.25 -999.99   -3.25    0.00000     0.00  LINEAR    3.21980E-01   -94.05    0.00000E+00     0.00
 -135.00   360.00      -2.23 -999.99   -2.23    0.00000     0.00  LINEAR    3.61981E-01   -94.07    0.00000E+00     0.00
 -130.00   360.00      -1.35 -999.99   -1.35    0.00000     0.00  LINEAR    4.00715E-01   -94.09    0.00000E+00     0.00
 -125.00   360.00      -0.58 -999.99   -0.58    0.00000     0.00  LINEAR    4.37510E-01   -94.11    0.00000E+00     0.00
 -120.00   360.00       0.07 -999.99    0.07    0.00000     0.00  LINEAR    4.71616E-01   -94.13    0.00000E+00     0.00
 -115.00   360.00       0.61 -999.99    0.61    0.00000     0.00  LINEAR    5.02247E-01   -94.15    0.00000E+00     0.00
 -110.00   360.00       1.06 -999.99    1.06    0.00000     0.00  LINEAR    5.28621E-01   -94.17    0.00000E+00     0.00
 -105.00   360.00       1.40 -999.99    1.40    0.00000     0.00  LINEAR    5.50008E-01   -94.18    0.00000E+00     0.00
 -100.00   360.00       1.65 -999.99    1.65    0.00000     0.00  LINEAR    5.65778E-01   -94.19    0.00000E+00     0.00
  -95.00   360.00       1.80 -999.99    1.80    0.00000     0.00  LINEAR    5.75445E-01   -94.19    0.00000E+00     0.00
  -90.00   360.00       1.85 -999.99    1.85    0.00000     0.00  LINEAR    5.78702E-01   -94.19    0.00000E+00     0.00
  -85.00   360.00       1.80 -999.99    1.80    0.00000     0.00  LINEAR    5.75445E-01   -94.19    0.00000E+00     0.00
  -80.00   360.00       1.65 -999.99    1.65    0.00000     0.00  LINEAR    5.65778E-01   -94.19    0.00000E+00     0.00
  -75.00   360.00       1.40 -999.99    1.40    0.00000     0.00  LINEAR    5.50008E-01   -94.18    0.00000E+00     0.00
  -70.00   360.00       1.06 -999.99    1.06    0.00000     0.00  LINEAR    5.28621E-01   -94.17    0.00000E+00     0.00
  -65.00   360.00       0.61 -999.99    0.61    0.00000     0.00  LINEAR    5.02247E-01   -94.15    0.00000E+00     0.00
  -60.00   360.00       0.07 -999.99    0.07    0.00000     0.00  LINEAR    4.71616E-01   -94.13    0.00000E+00     0.00
  -55.00   360.00      -0.58 -999.99   -0.58    0.00000     0.00  LINEAR    4.37510E-01   -94.11    0.00000E+00     0.00
  -50.00   360.00      -1.35 -999.99   -1.35    0.00000     0.00  LINEAR    4.00715E-01   -94.09    0.00000E+00     0.00
  -45.00   360.00      -2.23 -999.99   -2.23    0.00000     0.00  LINEAR    3.61981E-01   -94.07    0.00000E+00     0.00
  -40.00   360.00      -3.25 -999.99   -3.25    0.00000     0.00  LINEAR    3.21980E-01   -94.05    0.00000E+00     0.00
  -35.00   360.00      -4.42 -999.99   -4.42    0.00000     0.00  LINEAR    2.81283E-01   -94.02    0.00000E+00     0.00
  -30.00   360.00      -5.79 -999.99   -5.79    0.00000     0.00  LINEAR    2.40342E-01   -94.00    0.00000E+00     0.00
  -25.00   360.00      -7.41 -999.99   -7.41    0.00000     0.00  LINEAR    1.99483E-01   -93.98    0.00000E+00     0.00
  -20.00   360.00      -9.38 -999.99   -9.38    0.00000     0.00  LINEAR    1.58912E-01   -93.96    0.00000E+00     0.00
  -15.00   360.00     -11.91 -999.99  -11.91    0.00000     0.00  LINEAR    1.18718E-01   -93.95    0.00000E+00     0.00
  -10.00   360.00     -15.46 -999.99  -15.46    0.00000     0.00  LINEAR    7.88974E-02   -93.94    0.00000E+00     0.00
   -5.00   360.00     -21.50 -999.99  -21.50    0.00000     0.00  LINEAR    3.93690E-02   -93.93    0.00000E+00     0.00
    0.00   360.00    -999.99 -999.99 -999.99    0.00000     0.00            0.00000E+00     0.00    0.00000E+00     0.00


   AVERAGE POWER GAIN= 5.81717E-01       SOLID ANGLE USED IN AVERAGING=( 4.0000)*PI STERADIANS.








 ***** DATA CARD NO. 26   EN   0    37    73  1003 -1.80000E+02  0.00000E+00  5.00000E+00  5.00000E+00  0.00000E+00  0.00000E+00

 RUN TIME =     0.344
