1



                                 *********************************************

                                    NUMERICAL ELECTROMAGNETICS CODE (NEC-2D)

                                 *********************************************




                                     - - - - COMMENTS - - - -


                                                                                                     
                          forw:-999, 0 ; back: 0, 0                                                  
                                                                                                     




                                 - - - STRUCTURE SPECIFICATION - - -

                                     COORDINATES MUST BE INPUT IN
                                     METERS OR BE SCALED TO METERS
                                     BEFORE STRUCTURE INPUT IS ENDED


  WIRE                                                                               NO. OF    FIRST  LAST     TAG
  NO.        X1         Y1         Z1          X2         Y2         Z2      RADIUS   SEG.     SEG.   SEG.     NO.
     1    0.00000    0.00000   -0.17430     0.00000    0.00000    0.17430    0.00010      9        1     9       1
     2    0.00000    0.34860   -0.17430     0.00000    0.34860    0.17430    0.00010      9       10    18       2
     3    0.00000    0.69719   -0.17430     0.00000    0.69719    0.17430    0.00010      9       19    27       3
     4    0.00000    1.04579   -0.17430     0.00000    1.04579    0.17430    0.00010      9       28    36       4
     5    0.00000    1.39438   -0.17430     0.00000    1.39438    0.17430    0.00010      9       37    45       5
     6    0.00000    1.74298   -0.17430     0.00000    1.74298    0.17430    0.00010      9       46    54       6
     7    0.00000    2.09158   -0.17430     0.00000    2.09158    0.17430    0.00010      9       55    63       7
     8    0.00000    2.44017   -0.17430     0.00000    2.44017    0.17430    0.00010      9       64    72       8
     9    0.00000    2.78877   -0.17430     0.00000    2.78877    0.17430    0.00010      9       73    81       9
    10    0.00000    3.13736   -0.17430     0.00000    3.13736    0.17430    0.00010      9       82    90      10
    11    0.00000    3.48596   -0.17430     0.00000    3.48596    0.17430    0.00010      9       91    99      11
    12    0.00000    3.83455   -0.17430     0.00000    3.83455    0.17430    0.00010      9      100   108      12
    13    0.00000    4.18315   -0.17430     0.00000    4.18315    0.17430    0.00010      9      109   117      13
    14    0.00000    4.53175   -0.17430     0.00000    4.53175    0.17430    0.00010      9      118   126      14
    15    0.00000    4.88034   -0.17430     0.00000    4.88034    0.17430    0.00010      9      127   135      15
    16    0.00000    5.22894   -0.17430     0.00000    5.22894    0.17430    0.00010      9      136   144      16
    17    0.00000    5.57753   -0.17430     0.00000    5.57753    0.17430    0.00010      9      145   153      17
    18    0.00000    5.92613   -0.17430     0.00000    5.92613    0.17430    0.00010      9      154   162      18
    19    0.00000    6.27473   -0.17430     0.00000    6.27473    0.17430    0.00010      9      163   171      19
    20    0.00000    6.62332   -0.17430     0.00000    6.62332    0.17430    0.00010      9      172   180      20

   TOTAL SEGMENTS USED=  180     NO. SEG. IN A SYMMETRIC CELL=  180     SYMMETRY FLAG=  0


         - MULTIPLE WIRE JUNCTIONS -
 JUNCTION    SEGMENTS  (- FOR END 1, + FOR END 2)
  NONE




                                 - - - - SEGMENTATION DATA - - - -

                                        COORDINATES IN METERS

                         I+ AND I- INDICATE THE SEGMENTS BEFORE AND AFTER I


  SEG.   COORDINATES OF SEG. CENTER     SEG.     ORIENTATION ANGLES    WIRE    CONNECTION DATA   TAG
  NO.       X         Y         Z       LENGTH     ALPHA     BETA      RADIUS    I-   I    I+    NO.
     1   0.00000   0.00000  -0.15493   0.03873   90.00000   0.00000   0.00010     0    1    2      1
     2   0.00000   0.00000  -0.11620   0.03873   90.00000   0.00000   0.00010     1    2    3      1
     3   0.00000   0.00000  -0.07747   0.03873   90.00000   0.00000   0.00010     2    3    4      1
     4   0.00000   0.00000  -0.03873   0.03873   90.00000   0.00000   0.00010     3    4    5      1
     5   0.00000   0.00000   0.00000   0.03873   90.00000   0.00000   0.00010     4    5    6      1
     6   0.00000   0.00000   0.03873   0.03873   90.00000   0.00000   0.00010     5    6    7      1
     7   0.00000   0.00000   0.07747   0.03873   90.00000   0.00000   0.00010     6    7    8      1
     8   0.00000   0.00000   0.11620   0.03873   90.00000   0.00000   0.00010     7    8    9      1
     9   0.00000   0.00000   0.15493   0.03873   90.00000   0.00000   0.00010     8    9    0      1
    10   0.00000   0.34860  -0.15493   0.03873   90.00000   0.00000   0.00010     0   10   11      2
    11   0.00000   0.34860  -0.11620   0.03873   90.00000   0.00000   0.00010    10   11   12      2
    12   0.00000   0.34860  -0.07747   0.03873   90.00000   0.00000   0.00010    11   12   13      2
    13   0.00000   0.34860  -0.03873   0.03873   90.00000   0.00000   0.00010    12   13   14      2
    14   0.00000   0.34860   0.00000   0.03873   90.00000   0.00000   0.00010    13   14   15      2
    15   0.00000   0.34860   0.03873   0.03873   90.00000   0.00000   0.00010    14   15   16      2
    16   0.00000   0.34860   0.07747   0.03873   90.00000   0.00000   0.00010    15   16   17      2
    17   0.00000   0.34860   0.11620   0.03873   90.00000   0.00000   0.00010    16   17   18      2
    18   0.00000   0.34860   0.15493   0.03873   90.00000   0.00000   0.00010    17   18    0      2
    19   0.00000   0.69719  -0.15493   0.03873   90.00000   0.00000   0.00010     0   19   20      3
    20   0.00000   0.69719  -0.11620   0.03873   90.00000   0.00000   0.00010    19   20   21      3
    21   0.00000   0.69719  -0.07747   0.03873   90.00000   0.00000   0.00010    20   21   22      3
    22   0.00000   0.69719  -0.03873   0.03873   90.00000   0.00000   0.00010    21   22   23      3
    23   0.00000   0.69719   0.00000   0.03873   90.00000   0.00000   0.00010    22   23   24      3
    24   0.00000   0.69719   0.03873   0.03873   90.00000   0.00000   0.00010    23   24   25      3
    25   0.00000   0.69719   0.07747   0.03873   90.00000   0.00000   0.00010    24   25   26      3
    26   0.00000   0.69719   0.11620   0.03873   90.00000   0.00000   0.00010    25   26   27      3
    27   0.00000   0.69719   0.15493   0.03873   90.00000   0.00000   0.00010    26   27    0      3
    28   0.00000   1.04579  -0.15493   0.03873   90.00000   0.00000   0.00010     0   28   29      4
    29   0.00000   1.04579  -0.11620   0.03873   90.00000   0.00000   0.00010    28   29   30      4
    30   0.00000   1.04579  -0.07747   0.03873   90.00000   0.00000   0.00010    29   30   31      4
    31   0.00000   1.04579  -0.03873   0.03873   90.00000   0.00000   0.00010    30   31   32      4
    32   0.00000   1.04579   0.00000   0.03873   90.00000   0.00000   0.00010    31   32   33      4
    33   0.00000   1.04579   0.03873   0.03873   90.00000   0.00000   0.00010    32   33   34      4
    34   0.00000   1.04579   0.07747   0.03873   90.00000   0.00000   0.00010    33   34   35      4
    35   0.00000   1.04579   0.11620   0.03873   90.00000   0.00000   0.00010    34   35   36      4
    36   0.00000   1.04579   0.15493   0.03873   90.00000   0.00000   0.00010    35   36    0      4
    37   0.00000   1.39438  -0.15493   0.03873   90.00000   0.00000   0.00010     0   37   38      5
    38   0.00000   1.39438  -0.11620   0.03873   90.00000   0.00000   0.00010    37   38   39      5
    39   0.00000   1.39438  -0.07747   0.03873   90.00000   0.00000   0.00010    38   39   40      5
    40   0.00000   1.39438  -0.03873   0.03873   90.00000   0.00000   0.00010    39   40   41      5
    41   0.00000   1.39438   0.00000   0.03873   90.00000   0.00000   0.00010    40   41   42      5
    42   0.00000   1.39438   0.03873   0.03873   90.00000   0.00000   0.00010    41   42   43      5
    43   0.00000   1.39438   0.07747   0.03873   90.00000   0.00000   0.00010    42   43   44      5
    44   0.00000   1.39438   0.11620   0.03873   90.00000   0.00000   0.00010    43   44   45      5
    45   0.00000   1.39438   0.15493   0.03873   90.00000   0.00000   0.00010    44   45    0      5
    46   0.00000   1.74298  -0.15493   0.03873   90.00000   0.00000   0.00010     0   46   47      6
    47   0.00000   1.74298  -0.11620   0.03873   90.00000   0.00000   0.00010    46   47   48      6
    48   0.00000   1.74298  -0.07747   0.03873   90.00000   0.00000   0.00010    47   48   49      6
    49   0.00000   1.74298  -0.03873   0.03873   90.00000   0.00000   0.00010    48   49   50      6
    50   0.00000   1.74298   0.00000   0.03873   90.00000   0.00000   0.00010    49   50   51      6
    51   0.00000   1.74298   0.03873   0.03873   90.00000   0.00000   0.00010    50   51   52      6
    52   0.00000   1.74298   0.07747   0.03873   90.00000   0.00000   0.00010    51   52   53      6
    53   0.00000   1.74298   0.11620   0.03873   90.00000   0.00000   0.00010    52   53   54      6
    54   0.00000   1.74298   0.15493   0.03873   90.00000   0.00000   0.00010    53   54    0      6
    55   0.00000   2.09158  -0.15493   0.03873   90.00000   0.00000   0.00010     0   55   56      7
    56   0.00000   2.09158  -0.11620   0.03873   90.00000   0.00000   0.00010    55   56   57      7
    57   0.00000   2.09158  -0.07747   0.03873   90.00000   0.00000   0.00010    56   57   58      7
    58   0.00000   2.09158  -0.03873   0.03873   90.00000   0.00000   0.00010    57   58   59      7
    59   0.00000   2.09158   0.00000   0.03873   90.00000   0.00000   0.00010    58   59   60      7
    60   0.00000   2.09158   0.03873   0.03873   90.00000   0.00000   0.00010    59   60   61      7
    61   0.00000   2.09158   0.07747   0.03873   90.00000   0.00000   0.00010    60   61   62      7
    62   0.00000   2.09158   0.11620   0.03873   90.00000   0.00000   0.00010    61   62   63      7
    63   0.00000   2.09158   0.15493   0.03873   90.00000   0.00000   0.00010    62   63    0      7
    64   0.00000   2.44017  -0.15493   0.03873   90.00000   0.00000   0.00010     0   64   65      8
    65   0.00000   2.44017  -0.11620   0.03873   90.00000   0.00000   0.00010    64   65   66      8
    66   0.00000   2.44017  -0.07747   0.03873   90.00000   0.00000   0.00010    65   66   67      8
    67   0.00000   2.44017  -0.03873   0.03873   90.00000   0.00000   0.00010    66   67   68      8
    68   0.00000   2.44017   0.00000   0.03873   90.00000   0.00000   0.00010    67   68   69      8
    69   0.00000   2.44017   0.03873   0.03873   90.00000   0.00000   0.00010    68   69   70      8
    70   0.00000   2.44017   0.07747   0.03873   90.00000   0.00000   0.00010    69   70   71      8
    71   0.00000   2.44017   0.11620   0.03873   90.00000   0.00000   0.00010    70   71   72      8
    72   0.00000   2.44017   0.15493   0.03873   90.00000   0.00000   0.00010    71   72    0      8
    73   0.00000   2.78877  -0.15493   0.03873   90.00000   0.00000   0.00010     0   73   74      9
    74   0.00000   2.78877  -0.11620   0.03873   90.00000   0.00000   0.00010    73   74   75      9
    75   0.00000   2.78877  -0.07747   0.03873   90.00000   0.00000   0.00010    74   75   76      9
    76   0.00000   2.78877  -0.03873   0.03873   90.00000   0.00000   0.00010    75   76   77      9
    77   0.00000   2.78877   0.00000   0.03873   90.00000   0.00000   0.00010    76   77   78      9
    78   0.00000   2.78877   0.03873   0.03873   90.00000   0.00000   0.00010    77   78   79      9
    79   0.00000   2.78877   0.07747   0.03873   90.00000   0.00000   0.00010    78   79   80      9
    80   0.00000   2.78877   0.11620   0.03873   90.00000   0.00000   0.00010    79   80   81      9
    81   0.00000   2.78877   0.15493   0.03873   90.00000   0.00000   0.00010    80   81    0      9
    82   0.00000   3.13736  -0.15493   0.03873   90.00000   0.00000   0.00010     0   82   83     10
    83   0.00000   3.13736  -0.11620   0.03873   90.00000   0.00000   0.00010    82   83   84     10
    84   0.00000   3.13736  -0.07747   0.03873   90.00000   0.00000   0.00010    83   84   85     10
    85   0.00000   3.13736  -0.03873   0.03873   90.00000   0.00000   0.00010    84   85   86     10
    86   0.00000   3.13736   0.00000   0.03873   90.00000   0.00000   0.00010    85   86   87     10
    87   0.00000   3.13736   0.03873   0.03873   90.00000   0.00000   0.00010    86   87   88     10
    88   0.00000   3.13736   0.07747   0.03873   90.00000   0.00000   0.00010    87   88   89     10
    89   0.00000   3.13736   0.11620   0.03873   90.00000   0.00000   0.00010    88   89   90     10
    90   0.00000   3.13736   0.15493   0.03873   90.00000   0.00000   0.00010    89   90    0     10
    91   0.00000   3.48596  -0.15493   0.03873   90.00000   0.00000   0.00010     0   91   92     11
    92   0.00000   3.48596  -0.11620   0.03873   90.00000   0.00000   0.00010    91   92   93     11
    93   0.00000   3.48596  -0.07747   0.03873   90.00000   0.00000   0.00010    92   93   94     11
    94   0.00000   3.48596  -0.03873   0.03873   90.00000   0.00000   0.00010    93   94   95     11
    95   0.00000   3.48596   0.00000   0.03873   90.00000   0.00000   0.00010    94   95   96     11
    96   0.00000   3.48596   0.03873   0.03873   90.00000   0.00000   0.00010    95   96   97     11
    97   0.00000   3.48596   0.07747   0.03873   90.00000   0.00000   0.00010    96   97   98     11
    98   0.00000   3.48596   0.11620   0.03873   90.00000   0.00000   0.00010    97   98   99     11
    99   0.00000   3.48596   0.15493   0.03873   90.00000   0.00000   0.00010    98   99    0     11
   100   0.00000   3.83455  -0.15493   0.03873   90.00000   0.00000   0.00010     0  100  101     12
   101   0.00000   3.83455  -0.11620   0.03873   90.00000   0.00000   0.00010   100  101  102     12
   102   0.00000   3.83455  -0.07747   0.03873   90.00000   0.00000   0.00010   101  102  103     12
   103   0.00000   3.83455  -0.03873   0.03873   90.00000   0.00000   0.00010   102  103  104     12
   104   0.00000   3.83455   0.00000   0.03873   90.00000   0.00000   0.00010   103  104  105     12
   105   0.00000   3.83455   0.03873   0.03873   90.00000   0.00000   0.00010   104  105  106     12
   106   0.00000   3.83455   0.07747   0.03873   90.00000   0.00000   0.00010   105  106  107     12
   107   0.00000   3.83455   0.11620   0.03873   90.00000   0.00000   0.00010   106  107  108     12
   108   0.00000   3.83455   0.15493   0.03873   90.00000   0.00000   0.00010   107  108    0     12
   109   0.00000   4.18315  -0.15493   0.03873   90.00000   0.00000   0.00010     0  109  110     13
   110   0.00000   4.18315  -0.11620   0.03873   90.00000   0.00000   0.00010   109  110  111     13
   111   0.00000   4.18315  -0.07747   0.03873   90.00000   0.00000   0.00010   110  111  112     13
   112   0.00000   4.18315  -0.03873   0.03873   90.00000   0.00000   0.00010   111  112  113     13
   113   0.00000   4.18315   0.00000   0.03873   90.00000   0.00000   0.00010   112  113  114     13
   114   0.00000   4.18315   0.03873   0.03873   90.00000   0.00000   0.00010   113  114  115     13
   115   0.00000   4.18315   0.07747   0.03873   90.00000   0.00000   0.00010   114  115  116     13
   116   0.00000   4.18315   0.11620   0.03873   90.00000   0.00000   0.00010   115  116  117     13
   117   0.00000   4.18315   0.15493   0.03873   90.00000   0.00000   0.00010   116  117    0     13
   118   0.00000   4.53175  -0.15493   0.03873   90.00000   0.00000   0.00010     0  118  119     14
   119   0.00000   4.53175  -0.11620   0.03873   90.00000   0.00000   0.00010   118  119  120     14
   120   0.00000   4.53175  -0.07747   0.03873   90.00000   0.00000   0.00010   119  120  121     14
   121   0.00000   4.53175  -0.03873   0.03873   90.00000   0.00000   0.00010   120  121  122     14
   122   0.00000   4.53175   0.00000   0.03873   90.00000   0.00000   0.00010   121  122  123     14
   123   0.00000   4.53175   0.03873   0.03873   90.00000   0.00000   0.00010   122  123  124     14
   124   0.00000   4.53175   0.07747   0.03873   90.00000   0.00000   0.00010   123  124  125     14
   125   0.00000   4.53175   0.11620   0.03873   90.00000   0.00000   0.00010   124  125  126     14
   126   0.00000   4.53175   0.15493   0.03873   90.00000   0.00000   0.00010   125  126    0     14
   127   0.00000   4.88034  -0.15493   0.03873   90.00000   0.00000   0.00010     0  127  128     15
   128   0.00000   4.88034  -0.11620   0.03873   90.00000   0.00000   0.00010   127  128  129     15
   129   0.00000   4.88034  -0.07747   0.03873   90.00000   0.00000   0.00010   128  129  130     15
   130   0.00000   4.88034  -0.03873   0.03873   90.00000   0.00000   0.00010   129  130  131     15
   131   0.00000   4.88034   0.00000   0.03873   90.00000   0.00000   0.00010   130  131  132     15
   132   0.00000   4.88034   0.03873   0.03873   90.00000   0.00000   0.00010   131  132  133     15
   133   0.00000   4.88034   0.07747   0.03873   90.00000   0.00000   0.00010   132  133  134     15
   134   0.00000   4.88034   0.11620   0.03873   90.00000   0.00000   0.00010   133  134  135     15
   135   0.00000   4.88034   0.15493   0.03873   90.00000   0.00000   0.00010   134  135    0     15
   136   0.00000   5.22894  -0.15493   0.03873   90.00000   0.00000   0.00010     0  136  137     16
   137   0.00000   5.22894  -0.11620   0.03873   90.00000   0.00000   0.00010   136  137  138     16
   138   0.00000   5.22894  -0.07747   0.03873   90.00000   0.00000   0.00010   137  138  139     16
   139   0.00000   5.22894  -0.03873   0.03873   90.00000   0.00000   0.00010   138  139  140     16
   140   0.00000   5.22894   0.00000   0.03873   90.00000   0.00000   0.00010   139  140  141     16
   141   0.00000   5.22894   0.03873   0.03873   90.00000   0.00000   0.00010   140  141  142     16
   142   0.00000   5.22894   0.07747   0.03873   90.00000   0.00000   0.00010   141  142  143     16
   143   0.00000   5.22894   0.11620   0.03873   90.00000   0.00000   0.00010   142  143  144     16
   144   0.00000   5.22894   0.15493   0.03873   90.00000   0.00000   0.00010   143  144    0     16
   145   0.00000   5.57753  -0.15493   0.03873   90.00000   0.00000   0.00010     0  145  146     17
   146   0.00000   5.57753  -0.11620   0.03873   90.00000   0.00000   0.00010   145  146  147     17
   147   0.00000   5.57753  -0.07747   0.03873   90.00000   0.00000   0.00010   146  147  148     17
   148   0.00000   5.57753  -0.03873   0.03873   90.00000   0.00000   0.00010   147  148  149     17
   149   0.00000   5.57753   0.00000   0.03873   90.00000   0.00000   0.00010   148  149  150     17
   150   0.00000   5.57753   0.03873   0.03873   90.00000   0.00000   0.00010   149  150  151     17
   151   0.00000   5.57753   0.07747   0.03873   90.00000   0.00000   0.00010   150  151  152     17
   152   0.00000   5.57753   0.11620   0.03873   90.00000   0.00000   0.00010   151  152  153     17
   153   0.00000   5.57753   0.15493   0.03873   90.00000   0.00000   0.00010   152  153    0     17
   154   0.00000   5.92613  -0.15493   0.03873   90.00000   0.00000   0.00010     0  154  155     18
   155   0.00000   5.92613  -0.11620   0.03873   90.00000   0.00000   0.00010   154  155  156     18
   156   0.00000   5.92613  -0.07747   0.03873   90.00000   0.00000   0.00010   155  156  157     18
   157   0.00000   5.92613  -0.03873   0.03873   90.00000   0.00000   0.00010   156  157  158     18
   158   0.00000   5.92613   0.00000   0.03873   90.00000   0.00000   0.00010   157  158  159     18
   159   0.00000   5.92613   0.03873   0.03873   90.00000   0.00000   0.00010   158  159  160     18
   160   0.00000   5.92613   0.07747   0.03873   90.00000   0.00000   0.00010   159  160  161     18
   161   0.00000   5.92613   0.11620   0.03873   90.00000   0.00000   0.00010   160  161  162     18
   162   0.00000   5.92613   0.15493   0.03873   90.00000   0.00000   0.00010   161  162    0     18
   163   0.00000   6.27473  -0.15493   0.03873   90.00000   0.00000   0.00010     0  163  164     19
   164   0.00000   6.27473  -0.11620   0.03873   90.00000   0.00000   0.00010   163  164  165     19
   165   0.00000   6.27473  -0.07747   0.03873   90.00000   0.00000   0.00010   164  165  166     19
   166   0.00000   6.27473  -0.03873   0.03873   90.00000   0.00000   0.00010   165  166  167     19
   167   0.00000   6.27473   0.00000   0.03873   90.00000   0.00000   0.00010   166  167  168     19
   168   0.00000   6.27473   0.03873   0.03873   90.00000   0.00000   0.00010   167  168  169     19
   169   0.00000   6.27473   0.07747   0.03873   90.00000   0.00000   0.00010   168  169  170     19
   170   0.00000   6.27473   0.11620   0.03873   90.00000   0.00000   0.00010   169  170  171     19
   171   0.00000   6.27473   0.15493   0.03873   90.00000   0.00000   0.00010   170  171    0     19
   172   0.00000   6.62332  -0.15493   0.03873   90.00000   0.00000   0.00010     0  172  173     20
   173   0.00000   6.62332  -0.11620   0.03873   90.00000   0.00000   0.00010   172  173  174     20
   174   0.00000   6.62332  -0.07747   0.03873   90.00000   0.00000   0.00010   173  174  175     20
   175   0.00000   6.62332  -0.03873   0.03873   90.00000   0.00000   0.00010   174  175  176     20
   176   0.00000   6.62332   0.00000   0.03873   90.00000   0.00000   0.00010   175  176  177     20
   177   0.00000   6.62332   0.03873   0.03873   90.00000   0.00000   0.00010   176  177  178     20
   178   0.00000   6.62332   0.07747   0.03873   90.00000   0.00000   0.00010   177  178  179     20
   179   0.00000   6.62332   0.11620   0.03873   90.00000   0.00000   0.00010   178  179  180     20
   180   0.00000   6.62332   0.15493   0.03873   90.00000   0.00000   0.00010   179  180    0     20






 ***** DATA CARD NO.  1   LD   4     1     5     5  5.00000E+01  0.00000E+00  0.00000E+00  0.00000E+00  0.00000E+00  0.00000E+00
 ***** DATA CARD NO.  2   LD   4     2     5     5  5.00000E+01  0.00000E+00  0.00000E+00  0.00000E+00  0.00000E+00  0.00000E+00
 ***** DATA CARD NO.  3   LD   4     3     5     5  5.00000E+01  0.00000E+00  0.00000E+00  0.00000E+00  0.00000E+00  0.00000E+00
 ***** DATA CARD NO.  4   LD   4     4     5     5  5.00000E+01  0.00000E+00  0.00000E+00  0.00000E+00  0.00000E+00  0.00000E+00
 ***** DATA CARD NO.  5   LD   4     5     5     5  5.00000E+01  0.00000E+00  0.00000E+00  0.00000E+00  0.00000E+00  0.00000E+00
 ***** DATA CARD NO.  6   LD   4     6     5     5  5.00000E+01  0.00000E+00  0.00000E+00  0.00000E+00  0.00000E+00  0.00000E+00
 ***** DATA CARD NO.  7   LD   4     7     5     5  5.00000E+01  0.00000E+00  0.00000E+00  0.00000E+00  0.00000E+00  0.00000E+00
 ***** DATA CARD NO.  8   LD   4     8     5     5  5.00000E+01  0.00000E+00  0.00000E+00  0.00000E+00  0.00000E+00  0.00000E+00
 ***** DATA CARD NO.  9   LD   4     9     5     5  5.00000E+01  0.00000E+00  0.00000E+00  0.00000E+00  0.00000E+00  0.00000E+00
 ***** DATA CARD NO. 10   LD   4    10     5     5  5.00000E+01  0.00000E+00  0.00000E+00  0.00000E+00  0.00000E+00  0.00000E+00
 ***** DATA CARD NO. 11   LD   4    11     5     5  5.00000E+01  0.00000E+00  0.00000E+00  0.00000E+00  0.00000E+00  0.00000E+00
 ***** DATA CARD NO. 12   LD   4    12     5     5  5.00000E+01  0.00000E+00  0.00000E+00  0.00000E+00  0.00000E+00  0.00000E+00
 ***** DATA CARD NO. 13   LD   4    13     5     5  5.00000E+01  0.00000E+00  0.00000E+00  0.00000E+00  0.00000E+00  0.00000E+00
 ***** DATA CARD NO. 14   LD   4    14     5     5  5.00000E+01  0.00000E+00  0.00000E+00  0.00000E+00  0.00000E+00  0.00000E+00
 ***** DATA CARD NO. 15   LD   4    15     5     5  5.00000E+01  0.00000E+00  0.00000E+00  0.00000E+00  0.00000E+00  0.00000E+00
 ***** DATA CARD NO. 16   LD   4    16     5     5  5.00000E+01  0.00000E+00  0.00000E+00  0.00000E+00  0.00000E+00  0.00000E+00
 ***** DATA CARD NO. 17   LD   4    17     5     5  5.00000E+01  0.00000E+00  0.00000E+00  0.00000E+00  0.00000E+00  0.00000E+00
 ***** DATA CARD NO. 18   LD   4    18     5     5  5.00000E+01  0.00000E+00  0.00000E+00  0.00000E+00  0.00000E+00  0.00000E+00
 ***** DATA CARD NO. 19   LD   4    19     5     5  5.00000E+01  0.00000E+00  0.00000E+00  0.00000E+00  0.00000E+00  0.00000E+00
 ***** DATA CARD NO. 20   LD   4    20     5     5  5.00000E+01  0.00000E+00  0.00000E+00  0.00000E+00  0.00000E+00  0.00000E+00
 ***** DATA CARD NO. 21   GN  -1     0     0     0  0.00000E+00  0.00000E+00  0.00000E+00  0.00000E+00  0.00000E+00  0.00000E+00
 ***** DATA CARD NO. 22   EK   0     0     0     0  0.00000E+00  0.00000E+00  0.00000E+00  0.00000E+00  0.00000E+00  0.00000E+00
 ***** DATA CARD NO. 23   EX   0     9     5     0  1.00000E+00  0.00000E+00  0.00000E+00  0.00000E+00  0.00000E+00  0.00000E+00
 ***** DATA CARD NO. 24   FR   0     0     0     0  4.30000E+02  0.00000E+00  0.00000E+00  0.00000E+00  0.00000E+00  0.00000E+00
 ***** DATA CARD NO. 25   RP   0    37    73  1003 -1.80000E+02  0.00000E+00  5.00000E+00  5.00000E+00  0.00000E+00  0.00000E+00




                                 - - - - - - FREQUENCY - - - - - -

                                    FREQUENCY= 4.3000E+02 MHZ
                                    WAVELENGTH= 6.9721E-01 METERS




                    APPROXIMATE INTEGRATION EMPLOYED FOR SEGMENTS MORE THAN   1.000 WAVELENGTHS APART

                    THE EXTENDED THIN WIRE KERNEL WILL BE USED



                               - - - STRUCTURE IMPEDANCE LOADING - - -


       LOCATION          RESISTANCE   INDUCTANCE  CAPACITANCE       IMPEDANCE (OHMS)     CONDUCTIVITY    TYPE
    ITAG FROM THRU          OHMS        HENRYS       FARADS        REAL      IMAGINARY    MHOS/METER

       1    5    5                                             5.0000E+01                             FIXED IMPEDANCE 

       2    5    5                                             5.0000E+01                             FIXED IMPEDANCE 

       3    5    5                                             5.0000E+01                             FIXED IMPEDANCE 

       4    5    5                                             5.0000E+01                             FIXED IMPEDANCE 

       5    5    5                                             5.0000E+01                             FIXED IMPEDANCE 

       6    5    5                                             5.0000E+01                             FIXED IMPEDANCE 

       7    5    5                                             5.0000E+01                             FIXED IMPEDANCE 

       8    5    5                                             5.0000E+01                             FIXED IMPEDANCE 

       9    5    5                                             5.0000E+01                             FIXED IMPEDANCE 

      10    5    5                                             5.0000E+01                             FIXED IMPEDANCE 

      11    5    5                                             5.0000E+01                             FIXED IMPEDANCE 

      12    5    5                                             5.0000E+01                             FIXED IMPEDANCE 

      13    5    5                                             5.0000E+01                             FIXED IMPEDANCE 

      14    5    5                                             5.0000E+01                             FIXED IMPEDANCE 

      15    5    5                                             5.0000E+01                             FIXED IMPEDANCE 

      16    5    5                                             5.0000E+01                             FIXED IMPEDANCE 

      17    5    5                                             5.0000E+01                             FIXED IMPEDANCE 

      18    5    5                                             5.0000E+01                             FIXED IMPEDANCE 

      19    5    5                                             5.0000E+01                             FIXED IMPEDANCE 

      20    5    5                                             5.0000E+01                             FIXED IMPEDANCE 



                                  - - - ANTENNA ENVIRONMENT - - -

                                            FREE SPACE



                                - - - MATRIX TIMING - - -

                        FILL=    0.031 SEC.,  FACTOR=    0.000 SEC.



                                          - - - ANTENNA INPUT PARAMETERS - - -

   TAG   SEG.    VOLTAGE (VOLTS)         CURRENT (AMPS)         IMPEDANCE (OHMS)        ADMITTANCE (MHOS)      POWER
   NO.   NO.    REAL        IMAG.       REAL        IMAG.       REAL        IMAG.       REAL        IMAG.     (WATTS)
     9    77 1.00000E+00 0.00000E+00 7.30480E-03-1.43846E-03 1.31786E+02 2.59513E+01 7.30480E-03-1.43846E-03 3.65240E-03



                             - - - CURRENTS AND LOCATION - - -

                                 DISTANCES IN WAVELENGTHS


  SEG.  TAG    COORD. OF SEG. CENTER     SEG.            - - - CURRENT (AMPS) - - -
  NO.   NO.     X        Y        Z      LENGTH     REAL        IMAG.       MAG.        PHASE
     1    1   0.0000   0.0000  -0.2222  0.05555  -1.7507E-05  1.0044E-06  1.7536E-05  176.716
     2    1   0.0000   0.0000  -0.1667  0.05555  -4.7172E-05  3.3519E-06  4.7291E-05  175.936
     3    1   0.0000   0.0000  -0.1111  0.05555  -7.0225E-05  5.9966E-06  7.0480E-05  175.119
     4    1   0.0000   0.0000  -0.0556  0.05555  -8.4967E-05  8.6764E-06  8.5408E-05  174.169
     5    1   0.0000   0.0000   0.0000  0.05555  -8.9940E-05  1.0634E-05  9.0566E-05  173.257
     6    1   0.0000   0.0000   0.0556  0.05555  -8.4967E-05  8.6764E-06  8.5408E-05  174.169
     7    1   0.0000   0.0000   0.1111  0.05555  -7.0225E-05  5.9966E-06  7.0480E-05  175.119
     8    1   0.0000   0.0000   0.1667  0.05555  -4.7172E-05  3.3519E-06  4.7291E-05  175.936
     9    1   0.0000   0.0000   0.2222  0.05555  -1.7507E-05  1.0044E-06  1.7536E-05  176.716
    10    2   0.0000   0.5000  -0.2222  0.05555   1.7880E-05 -3.1916E-06  1.8162E-05  -10.121
    11    2   0.0000   0.5000  -0.1667  0.05555   4.8152E-05 -9.2655E-06  4.9035E-05  -10.892
    12    2   0.0000   0.5000  -0.1111  0.05555   7.1616E-05 -1.4831E-05  7.3135E-05  -11.700
    13    2   0.0000   0.5000  -0.0556  0.05555   8.6514E-05 -1.9410E-05  8.8664E-05  -12.645
    14    2   0.0000   0.5000   0.0000  0.05555   9.1413E-05 -2.2040E-05  9.4033E-05  -13.556
    15    2   0.0000   0.5000   0.0556  0.05555   8.6514E-05 -1.9410E-05  8.8664E-05  -12.645
    16    2   0.0000   0.5000   0.1111  0.05555   7.1616E-05 -1.4831E-05  7.3135E-05  -11.700
    17    2   0.0000   0.5000   0.1667  0.05555   4.8152E-05 -9.2655E-06  4.9035E-05  -10.892
    18    2   0.0000   0.5000   0.2222  0.05555   1.7880E-05 -3.1916E-06  1.8162E-05  -10.121
    19    3   0.0000   1.0000  -0.2222  0.05555  -2.0917E-05  3.8374E-06  2.1266E-05  169.604
    20    3   0.0000   1.0000  -0.1667  0.05555  -5.6323E-05  1.1117E-05  5.7409E-05  168.835
    21    3   0.0000   1.0000  -0.1111  0.05555  -8.3758E-05  1.7762E-05  8.5621E-05  168.027
    22    3   0.0000   1.0000  -0.0556  0.05555  -1.0117E-04  2.3203E-05  1.0380E-04  167.083
    23    3   0.0000   1.0000   0.0000  0.05555  -1.0689E-04  2.6309E-05  1.1008E-04  166.173
    24    3   0.0000   1.0000   0.0556  0.05555  -1.0117E-04  2.3203E-05  1.0380E-04  167.083
    25    3   0.0000   1.0000   0.1111  0.05555  -8.3758E-05  1.7762E-05  8.5621E-05  168.027
    26    3   0.0000   1.0000   0.1667  0.05555  -5.6323E-05  1.1117E-05  5.7409E-05  168.835
    27    3   0.0000   1.0000   0.2222  0.05555  -2.0917E-05  3.8374E-06  2.1266E-05  169.604
    28    4   0.0000   1.5000  -0.2222  0.05555   2.6435E-05 -3.9219E-06  2.6724E-05   -8.439
    29    4   0.0000   1.5000  -0.1667  0.05555   7.1193E-05 -1.1551E-05  7.2124E-05   -9.216
    30    4   0.0000   1.5000  -0.1111  0.05555   1.0590E-04 -1.8728E-05  1.0755E-04  -10.029
    31    4   0.0000   1.5000  -0.0556  0.05555   1.2798E-04 -2.4821E-05  1.3036E-04  -10.976
    32    4   0.0000   1.5000   0.0000  0.05555   1.3529E-04 -2.8478E-05  1.3825E-04  -11.887
    33    4   0.0000   1.5000   0.0556  0.05555   1.2798E-04 -2.4821E-05  1.3036E-04  -10.976
    34    4   0.0000   1.5000   0.1111  0.05555   1.0590E-04 -1.8728E-05  1.0755E-04  -10.029
    35    4   0.0000   1.5000   0.1667  0.05555   7.1193E-05 -1.1551E-05  7.2124E-05   -9.216
    36    4   0.0000   1.5000   0.2222  0.05555   2.6435E-05 -3.9219E-06  2.6724E-05   -8.439
    37    5   0.0000   2.0000  -0.2222  0.05555  -3.6128E-05  3.0475E-06  3.6256E-05  175.178
    38    5   0.0000   2.0000  -0.1667  0.05555  -9.7334E-05  9.5618E-06  9.7803E-05  174.389
    39    5   0.0000   2.0000  -0.1111  0.05555  -1.4487E-04  1.6331E-05  1.4579E-04  173.568
    40    5   0.0000   2.0000  -0.0556  0.05555  -1.7523E-04  2.2708E-05  1.7669E-04  172.616
    41    5   0.0000   2.0000   0.0000  0.05555  -1.8541E-04  2.7039E-05  1.8737E-04  171.703
    42    5   0.0000   2.0000   0.0556  0.05555  -1.7523E-04  2.2708E-05  1.7669E-04  172.616
    43    5   0.0000   2.0000   0.1111  0.05555  -1.4487E-04  1.6331E-05  1.4579E-04  173.568
    44    5   0.0000   2.0000   0.1667  0.05555  -9.7334E-05  9.5618E-06  9.7803E-05  174.389
    45    5   0.0000   2.0000   0.2222  0.05555  -3.6128E-05  3.0475E-06  3.6256E-05  175.178
    46    6   0.0000   2.4999  -0.2222  0.05555   5.4785E-05  8.1764E-07  5.4791E-05    0.855
    47    6   0.0000   2.4999  -0.1667  0.05555   1.4768E-04  1.3587E-07  1.4768E-04    0.053
    48    6   0.0000   2.4999  -0.1111  0.05555   2.2000E-04 -2.9894E-06  2.2002E-04   -0.779
    49    6   0.0000   2.4999  -0.0556  0.05555   2.6645E-04 -8.0802E-06  2.6657E-04   -1.737
    50    6   0.0000   2.4999   0.0000  0.05555   2.8236E-04 -1.3080E-05  2.8266E-04   -2.652
    51    6   0.0000   2.4999   0.0556  0.05555   2.6645E-04 -8.0802E-06  2.6657E-04   -1.737
    52    6   0.0000   2.4999   0.1111  0.05555   2.2000E-04 -2.9894E-06  2.2002E-04   -0.779
    53    6   0.0000   2.4999   0.1667  0.05555   1.4768E-04  1.3587E-07  1.4768E-04    0.053
    54    6   0.0000   2.4999   0.2222  0.05555   5.4785E-05  8.1764E-07  5.4791E-05    0.855
    55    7   0.0000   2.9999  -0.2222  0.05555  -9.8456E-05 -1.7461E-05  9.9992E-05 -169.943
    56    7   0.0000   2.9999  -0.1667  0.05555  -2.6556E-04 -4.3272E-05  2.6906E-04 -170.745
    57    7   0.0000   2.9999  -0.1111  0.05555  -3.9610E-04 -5.8637E-05  4.0042E-04 -171.579
    58    7   0.0000   2.9999  -0.0556  0.05555  -4.8074E-04 -6.2940E-05  4.8484E-04 -172.541
    59    7   0.0000   2.9999   0.0000  0.05555  -5.1065E-04 -5.8561E-05  5.1400E-04 -173.458
    60    7   0.0000   2.9999   0.0556  0.05555  -4.8074E-04 -6.2940E-05  4.8484E-04 -172.541
    61    7   0.0000   2.9999   0.1111  0.05555  -3.9610E-04 -5.8637E-05  4.0042E-04 -171.579
    62    7   0.0000   2.9999   0.1667  0.05555  -2.6556E-04 -4.3272E-05  2.6906E-04 -170.745
    63    7   0.0000   2.9999   0.2222  0.05555  -9.8456E-05 -1.7461E-05  9.9992E-05 -169.943
    64    8   0.0000   3.4999  -0.2222  0.05555   2.6471E-04  1.2311E-04  2.9194E-04   24.943
    65    8   0.0000   3.4999  -0.1667  0.05555   7.1342E-04  3.2334E-04  7.8327E-04   24.382
    66    8   0.0000   3.4999  -0.1111  0.05555   1.0650E-03  4.6774E-04  1.1632E-03   23.711
    67    8   0.0000   3.4999  -0.0556  0.05555   1.2963E-03  5.4603E-04  1.4066E-03   22.843
    68    8   0.0000   3.4999   0.0000  0.05555   1.3824E-03  5.5728E-04  1.4905E-03   21.956
    69    8   0.0000   3.4999   0.0556  0.05555   1.2963E-03  5.4603E-04  1.4066E-03   22.843
    70    8   0.0000   3.4999   0.1111  0.05555   1.0650E-03  4.6774E-04  1.1632E-03   23.711
    71    8   0.0000   3.4999   0.1667  0.05555   7.1342E-04  3.2334E-04  7.8327E-04   24.382
    72    8   0.0000   3.4999   0.2222  0.05555   2.6471E-04  1.2311E-04  2.9194E-04   24.943
    73    9   0.0000   3.9999  -0.2222  0.05555   1.4336E-03 -4.0790E-04  1.4905E-03  -15.882
    74    9   0.0000   3.9999  -0.1667  0.05555   3.8527E-03 -1.0333E-03  3.9889E-03  -15.014
    75    9   0.0000   3.9999  -0.1111  0.05555   5.7229E-03 -1.4228E-03  5.8971E-03  -13.961
    76    9   0.0000   3.9999  -0.0556  0.05555   6.9109E-03 -1.5419E-03  7.0809E-03  -12.578
    77    9   0.0000   3.9999   0.0000  0.05555   7.3048E-03 -1.4385E-03  7.4451E-03  -11.140
    78    9   0.0000   3.9999   0.0556  0.05555   6.9109E-03 -1.5419E-03  7.0809E-03  -12.578
    79    9   0.0000   3.9999   0.1111  0.05555   5.7229E-03 -1.4228E-03  5.8971E-03  -13.961
    80    9   0.0000   3.9999   0.1667  0.05555   3.8527E-03 -1.0333E-03  3.9889E-03  -15.014
    81    9   0.0000   3.9999   0.2222  0.05555   1.4336E-03 -4.0790E-04  1.4905E-03  -15.882
    82   10   0.0000   4.4999  -0.2222  0.05555   2.6461E-04  1.2310E-04  2.9184E-04   24.948
    83   10   0.0000   4.4999  -0.1667  0.05555   7.1316E-04  3.2330E-04  7.8302E-04   24.386
    84   10   0.0000   4.4999  -0.1111  0.05555   1.0646E-03  4.6768E-04  1.1628E-03   23.716
    85   10   0.0000   4.4999  -0.0556  0.05555   1.2958E-03  5.4597E-04  1.4061E-03   22.848
    86   10   0.0000   4.4999   0.0000  0.05555   1.3819E-03  5.5722E-04  1.4900E-03   21.961
    87   10   0.0000   4.4999   0.0556  0.05555   1.2958E-03  5.4597E-04  1.4061E-03   22.848
    88   10   0.0000   4.4999   0.1111  0.05555   1.0646E-03  4.6768E-04  1.1628E-03   23.716
    89   10   0.0000   4.4999   0.1667  0.05555   7.1316E-04  3.2330E-04  7.8302E-04   24.386
    90   10   0.0000   4.4999   0.2222  0.05555   2.6461E-04  1.2310E-04  2.9184E-04   24.948
    91   11   0.0000   4.9999  -0.2222  0.05555  -9.8256E-05 -1.7422E-05  9.9789E-05 -169.945
    92   11   0.0000   4.9999  -0.1667  0.05555  -2.6502E-04 -4.3173E-05  2.6851E-04 -170.747
    93   11   0.0000   4.9999  -0.1111  0.05555  -3.9529E-04 -5.8500E-05  3.9960E-04 -171.582
    94   11   0.0000   4.9999  -0.0556  0.05555  -4.7976E-04 -6.2790E-05  4.8385E-04 -172.544
    95   11   0.0000   4.9999   0.0000  0.05555  -5.0961E-04 -5.8420E-05  5.1294E-04 -173.460
    96   11   0.0000   4.9999   0.0556  0.05555  -4.7976E-04 -6.2790E-05  4.8385E-04 -172.544
    97   11   0.0000   4.9999   0.1111  0.05555  -3.9529E-04 -5.8500E-05  3.9960E-04 -171.582
    98   11   0.0000   4.9999   0.1667  0.05555  -2.6502E-04 -4.3173E-05  2.6851E-04 -170.747
    99   11   0.0000   4.9999   0.2222  0.05555  -9.8256E-05 -1.7422E-05  9.9789E-05 -169.945
   100   12   0.0000   5.4999  -0.2222  0.05555   5.4461E-05  7.4917E-07  5.4466E-05    0.788
   101   12   0.0000   5.4999  -0.1667  0.05555   1.4680E-04 -3.7162E-08  1.4680E-04   -0.015
   102   12   0.0000   5.4999  -0.1111  0.05555   2.1869E-04 -3.2290E-06  2.1871E-04   -0.846
   103   12   0.0000   5.4999  -0.0556  0.05555   2.6486E-04 -8.3444E-06  2.6499E-04   -1.805
   104   12   0.0000   5.4999   0.0000  0.05555   2.8066E-04 -1.3333E-05  2.8098E-04   -2.720
   105   12   0.0000   5.4999   0.0556  0.05555   2.6486E-04 -8.3444E-06  2.6499E-04   -1.805
   106   12   0.0000   5.4999   0.1111  0.05555   2.1869E-04 -3.2290E-06  2.1871E-04   -0.846
   107   12   0.0000   5.4999   0.1667  0.05555   1.4680E-04 -3.7161E-08  1.4680E-04   -0.015
   108   12   0.0000   5.4999   0.2222  0.05555   5.4461E-05  7.4917E-07  5.4466E-05    0.788
   109   13   0.0000   5.9998  -0.2222  0.05555  -3.5644E-05  3.1619E-06  3.5784E-05  174.931
   110   13   0.0000   5.9998  -0.1667  0.05555  -9.6024E-05  9.8528E-06  9.6528E-05  174.141
   111   13   0.0000   5.9998  -0.1111  0.05555  -1.4291E-04  1.6737E-05  1.4389E-04  173.320
   112   13   0.0000   5.9998  -0.0556  0.05555  -1.7284E-04  2.3161E-05  1.7439E-04  172.368
   113   13   0.0000   5.9998   0.0000  0.05555  -1.8288E-04  2.7479E-05  1.8493E-04  171.455
   114   13   0.0000   5.9998   0.0556  0.05555  -1.7284E-04  2.3161E-05  1.7439E-04  172.368
   115   13   0.0000   5.9998   0.1111  0.05555  -1.4291E-04  1.6737E-05  1.4389E-04  173.320
   116   13   0.0000   5.9998   0.1667  0.05555  -9.6024E-05  9.8528E-06  9.6528E-05  174.141
   117   13   0.0000   5.9998   0.2222  0.05555  -3.5644E-05  3.1619E-06  3.5784E-05  174.931
   118   14   0.0000   6.4998  -0.2222  0.05555   2.5719E-05 -4.1160E-06  2.6046E-05   -9.092
   119   14   0.0000   6.4998  -0.1667  0.05555   6.9256E-05 -1.2048E-05  7.0296E-05   -9.869
   120   14   0.0000   6.4998  -0.1111  0.05555   1.0301E-04 -1.9428E-05  1.0482E-04  -10.681
   121   14   0.0000   6.4998  -0.0556  0.05555   1.2445E-04 -2.5611E-05  1.2706E-04  -11.628
   122   14   0.0000   6.4998   0.0000  0.05555   1.3154E-04 -2.9256E-05  1.3475E-04  -12.540
   123   14   0.0000   6.4998   0.0556  0.05555   1.2445E-04 -2.5611E-05  1.2706E-04  -11.628
   124   14   0.0000   6.4998   0.1111  0.05555   1.0301E-04 -1.9428E-05  1.0482E-04  -10.681
   125   14   0.0000   6.4998   0.1667  0.05555   6.9256E-05 -1.2048E-05  7.0296E-05   -9.869
   126   14   0.0000   6.4998   0.2222  0.05555   2.5719E-05 -4.1160E-06  2.6046E-05   -9.092
   127   15   0.0000   6.9998  -0.2222  0.05555  -1.9826E-05  4.1972E-06  2.0266E-05  168.047
   128   15   0.0000   6.9998  -0.1667  0.05555  -5.3371E-05  1.2046E-05  5.4713E-05  167.281
   129   15   0.0000   6.9998  -0.1111  0.05555  -7.9340E-05  1.9083E-05  8.1603E-05  166.476
   130   15   0.0000   6.9998  -0.0556  0.05555  -9.5792E-05  2.4715E-05  9.8929E-05  165.533
   131   15   0.0000   6.9998   0.0000  0.05555  -1.0116E-04  2.7821E-05  1.0492E-04  164.623
   132   15   0.0000   6.9998   0.0556  0.05555  -9.5792E-05  2.4715E-05  9.8929E-05  165.533
   133   15   0.0000   6.9998   0.1111  0.05555  -7.9340E-05  1.9083E-05  8.1603E-05  166.476
   134   15   0.0000   6.9998   0.1667  0.05555  -5.3371E-05  1.2046E-05  5.4713E-05  167.281
   135   15   0.0000   6.9998   0.2222  0.05555  -1.9826E-05  4.1972E-06  2.0266E-05  168.047
   136   16   0.0000   7.4998  -0.2222  0.05555   1.6062E-05 -3.9884E-06  1.6550E-05  -13.945
   137   16   0.0000   7.4998  -0.1667  0.05555   4.3229E-05 -1.1343E-05  4.4693E-05  -14.703
   138   16   0.0000   7.4998  -0.1111  0.05555   6.4242E-05 -1.7819E-05  6.6667E-05  -15.502
   139   16   0.0000   7.4998  -0.0556  0.05555   7.7524E-05 -2.2878E-05  8.0829E-05  -16.442
   140   16   0.0000   7.4998   0.0000  0.05555   8.1824E-05 -2.5565E-05  8.5725E-05  -17.351
   141   16   0.0000   7.4998   0.0556  0.05555   7.7524E-05 -2.2878E-05  8.0829E-05  -16.442
   142   16   0.0000   7.4998   0.1111  0.05555   6.4242E-05 -1.7819E-05  6.6667E-05  -15.502
   143   16   0.0000   7.4998   0.1667  0.05555   4.3229E-05 -1.1343E-05  4.4693E-05  -14.703
   144   16   0.0000   7.4998   0.2222  0.05555   1.6062E-05 -3.9884E-06  1.6550E-05  -13.945
   145   17   0.0000   7.9998  -0.2222  0.05555  -1.3569E-05  3.6710E-06  1.4057E-05  164.862
   146   17   0.0000   7.9998  -0.1667  0.05555  -3.6515E-05  1.0395E-05  3.7966E-05  164.109
   147   17   0.0000   7.9998  -0.1111  0.05555  -5.4254E-05  1.6263E-05  5.6639E-05  163.313
   148   17   0.0000   7.9998  -0.0556  0.05555  -6.5451E-05  2.0792E-05  6.8674E-05  162.376
   149   17   0.0000   7.9998   0.0000  0.05555  -6.9058E-05  2.3150E-05  7.2835E-05  161.468
   150   17   0.0000   7.9998   0.0556  0.05555  -6.5451E-05  2.0792E-05  6.8674E-05  162.376
   151   17   0.0000   7.9998   0.1111  0.05555  -5.4254E-05  1.6263E-05  5.6639E-05  163.313
   152   17   0.0000   7.9998   0.1667  0.05555  -3.6515E-05  1.0395E-05  3.7966E-05  164.109
   153   17   0.0000   7.9998   0.2222  0.05555  -1.3569E-05  3.6710E-06  1.4057E-05  164.862
   154   18   0.0000   8.4998  -0.2222  0.05555   1.1949E-05 -3.2787E-06  1.2390E-05  -15.344
   155   18   0.0000   8.4998  -0.1667  0.05555   3.2156E-05 -9.2783E-06  3.3467E-05  -16.095
   156   18   0.0000   8.4998  -0.1111  0.05555   4.7777E-05 -1.4507E-05  4.9931E-05  -16.890
   157   18   0.0000   8.4998  -0.0556  0.05555   5.7636E-05 -1.8535E-05  6.0542E-05  -17.827
   158   18   0.0000   8.4998   0.0000  0.05555   6.0809E-05 -2.0624E-05  6.4211E-05  -18.735
   159   18   0.0000   8.4998   0.0556  0.05555   5.7636E-05 -1.8535E-05  6.0542E-05  -17.827
   160   18   0.0000   8.4998   0.1111  0.05555   4.7777E-05 -1.4507E-05  4.9931E-05  -16.890
   161   18   0.0000   8.4998   0.1667  0.05555   3.2156E-05 -9.2783E-06  3.3467E-05  -16.095
   162   18   0.0000   8.4998   0.2222  0.05555   1.1949E-05 -3.2787E-06  1.2390E-05  -15.344
   163   19   0.0000   8.9998  -0.2222  0.05555  -1.1107E-05  2.7064E-06  1.1432E-05  166.306
   164   19   0.0000   8.9998  -0.1667  0.05555  -2.9900E-05  7.7063E-06  3.0877E-05  165.547
   165   19   0.0000   8.9998  -0.1111  0.05555  -4.4441E-05  1.2119E-05  4.6064E-05  164.747
   166   19   0.0000   8.9998  -0.0556  0.05555  -5.3637E-05  1.5576E-05  5.5853E-05  163.807
   167   19   0.0000   8.9998   0.0000  0.05555  -5.6617E-05  1.7420E-05  5.9237E-05  162.898
   168   19   0.0000   8.9998   0.0556  0.05555  -5.3637E-05  1.5576E-05  5.5853E-05  163.807
   169   19   0.0000   8.9998   0.1111  0.05555  -4.4441E-05  1.2119E-05  4.6064E-05  164.747
   170   19   0.0000   8.9998   0.1667  0.05555  -2.9900E-05  7.7063E-06  3.0877E-05  165.547
   171   19   0.0000   8.9998   0.2222  0.05555  -1.1107E-05  2.7064E-06  1.1432E-05  166.306
   172   20   0.0000   9.4998  -0.2222  0.05555   1.1672E-05 -1.1604E-06  1.1729E-05   -5.678
   173   20   0.0000   9.4998  -0.1667  0.05555   3.1438E-05 -3.5561E-06  3.1639E-05   -6.454
   174   20   0.0000   9.4998  -0.1111  0.05555   4.6781E-05 -5.9651E-06  4.7160E-05   -7.267
   175   20   0.0000   9.4998  -0.0556  0.05555   5.6567E-05 -8.1660E-06  5.7153E-05   -8.214
   176   20   0.0000   9.4998   0.0000  0.05555   5.9839E-05 -9.6128E-06  6.0606E-05   -9.126
   177   20   0.0000   9.4998   0.0556  0.05555   5.6567E-05 -8.1660E-06  5.7153E-05   -8.214
   178   20   0.0000   9.4998   0.1111  0.05555   4.6781E-05 -5.9651E-06  4.7160E-05   -7.267
   179   20   0.0000   9.4998   0.1667  0.05555   3.1438E-05 -3.5561E-06  3.1639E-05   -6.454
   180   20   0.0000   9.4998   0.2222  0.05555   1.1672E-05 -1.1604E-06  1.1729E-05   -5.678



                                        - - - POWER BUDGET - - -

                                           INPUT POWER   = 3.6524E-03 WATTS
                                           RADIATED POWER= 2.1342E-03 WATTS
                                           STRUCTURE LOSS= 1.5182E-03 WATTS
                                           NETWORK LOSS  = 0.0000E+00 WATTS
                                           EFFICIENCY    =  58.43 PERCENT



                                                - - - RADIATION PATTERNS - - -

  - - ANGLES - -           - POWER GAINS -       - - - POLARIZATION - - -    - - - E(THETA) - - -    - - - E(PHI) - - -
  THETA     PHI        VERT.   HOR.    TOTAL      AXIAL     TILT   SENSE     MAGNITUDE    PHASE      MAGNITUDE    PHASE 
 DEGREES  DEGREES       DB      DB      DB        RATIO     DEG.              VOLTS/M    DEGREES      VOLTS/M    DEGREES
 -180.00     0.00    -999.99 -999.99 -999.99    0.00000     0.00            4.58188E-12    86.03    0.00000E+00     0.00
 -175.00     0.00     -21.54 -999.99  -21.54    0.00000     0.00  LINEAR    3.92015E-02   -93.97    0.00000E+00     0.00
 -170.00     0.00     -15.50 -999.99  -15.50    0.00000     0.00  LINEAR    7.85618E-02   -93.98    0.00000E+00     0.00
 -165.00     0.00     -11.95 -999.99  -11.95    0.00000     0.00  LINEAR    1.18213E-01   -93.99    0.00000E+00     0.00
 -160.00     0.00      -9.42 -999.99   -9.42    0.00000     0.00  LINEAR    1.58236E-01   -94.00    0.00000E+00     0.00
 -155.00     0.00      -7.44 -999.99   -7.44    0.00000     0.00  LINEAR    1.98635E-01   -94.02    0.00000E+00     0.00
 -150.00     0.00      -5.82 -999.99   -5.82    0.00000     0.00  LINEAR    2.39320E-01   -94.04    0.00000E+00     0.00
 -145.00     0.00      -4.46 -999.99   -4.46    0.00000     0.00  LINEAR    2.80088E-01   -94.06    0.00000E+00     0.00
 -140.00     0.00      -3.28 -999.99   -3.28    0.00000     0.00  LINEAR    3.20612E-01   -94.09    0.00000E+00     0.00
 -135.00     0.00      -2.27 -999.99   -2.27    0.00000     0.00  LINEAR    3.60443E-01   -94.11    0.00000E+00     0.00
 -130.00     0.00      -1.38 -999.99   -1.38    0.00000     0.00  LINEAR    3.99013E-01   -94.13    0.00000E+00     0.00
 -125.00     0.00      -0.62 -999.99   -0.62    0.00000     0.00  LINEAR    4.35651E-01   -94.15    0.00000E+00     0.00
 -120.00     0.00       0.03 -999.99    0.03    0.00000     0.00  LINEAR    4.69613E-01   -94.17    0.00000E+00     0.00
 -115.00     0.00       0.58 -999.99    0.58    0.00000     0.00  LINEAR    5.00115E-01   -94.19    0.00000E+00     0.00
 -110.00     0.00       1.02 -999.99    1.02    0.00000     0.00  LINEAR    5.26377E-01   -94.21    0.00000E+00     0.00
 -105.00     0.00       1.37 -999.99    1.37    0.00000     0.00  LINEAR    5.47674E-01   -94.22    0.00000E+00     0.00
 -100.00     0.00       1.61 -999.99    1.61    0.00000     0.00  LINEAR    5.63376E-01   -94.23    0.00000E+00     0.00
  -95.00     0.00       1.76 -999.99    1.76    0.00000     0.00  LINEAR    5.73002E-01   -94.23    0.00000E+00     0.00
  -90.00     0.00       1.81 -999.99    1.81    0.00000     0.00  LINEAR    5.76246E-01   -94.24    0.00000E+00     0.00
  -85.00     0.00       1.76 -999.99    1.76    0.00000     0.00  LINEAR    5.73002E-01   -94.23    0.00000E+00     0.00
  -80.00     0.00       1.61 -999.99    1.61    0.00000     0.00  LINEAR    5.63376E-01   -94.23    0.00000E+00     0.00
  -75.00     0.00       1.37 -999.99    1.37    0.00000     0.00  LINEAR    5.47674E-01   -94.22    0.00000E+00     0.00
  -70.00     0.00       1.02 -999.99    1.02    0.00000     0.00  LINEAR    5.26377E-01   -94.21    0.00000E+00     0.00
  -65.00     0.00       0.58 -999.99    0.58    0.00000     0.00  LINEAR    5.00115E-01   -94.19    0.00000E+00     0.00
  -60.00     0.00       0.03 -999.99    0.03    0.00000     0.00  LINEAR    4.69613E-01   -94.17    0.00000E+00     0.00
  -55.00     0.00      -0.62 -999.99   -0.62    0.00000     0.00  LINEAR    4.35651E-01   -94.15    0.00000E+00     0.00
  -50.00     0.00      -1.38 -999.99   -1.38    0.00000     0.00  LINEAR    3.99013E-01   -94.13    0.00000E+00     0.00
  -45.00     0.00      -2.27 -999.99   -2.27    0.00000     0.00  LINEAR    3.60443E-01   -94.11    0.00000E+00     0.00
  -40.00     0.00      -3.28 -999.99   -3.28    0.00000     0.00  LINEAR    3.20612E-01   -94.09    0.00000E+00     0.00
  -35.00     0.00      -4.46 -999.99   -4.46    0.00000     0.00  LINEAR    2.80088E-01   -94.06    0.00000E+00     0.00
  -30.00     0.00      -5.82 -999.99   -5.82    0.00000     0.00  LINEAR    2.39320E-01   -94.04    0.00000E+00     0.00
  -25.00     0.00      -7.44 -999.99   -7.44    0.00000     0.00  LINEAR    1.98635E-01   -94.02    0.00000E+00     0.00
  -20.00     0.00      -9.42 -999.99   -9.42    0.00000     0.00  LINEAR    1.58236E-01   -94.00    0.00000E+00     0.00
  -15.00     0.00     -11.95 -999.99  -11.95    0.00000     0.00  LINEAR    1.18213E-01   -93.99    0.00000E+00     0.00
  -10.00     0.00     -15.50 -999.99  -15.50    0.00000     0.00  LINEAR    7.85618E-02   -93.98    0.00000E+00     0.00
   -5.00     0.00     -21.54 -999.99  -21.54    0.00000     0.00  LINEAR    3.92015E-02   -93.97    0.00000E+00     0.00
    0.00     0.00    -999.99 -999.99 -999.99    0.00000     0.00            0.00000E+00     0.00    0.00000E+00     0.00
 -180.00     5.00    -999.99 -999.99 -999.99    0.00000     0.00            4.58188E-12    86.03    0.00000E+00     0.00
 -175.00     5.00     -21.54 -999.99  -21.54    0.00000     0.00  LINEAR    3.92028E-02  -105.02    0.00000E+00     0.00
 -170.00     5.00     -15.50 -999.99  -15.50    0.00000     0.00  LINEAR    7.85589E-02  -115.99    0.00000E+00     0.00
 -165.00     5.00     -11.95 -999.99  -11.95    0.00000     0.00  LINEAR    1.18191E-01  -126.78    0.00000E+00     0.00
 -160.00     5.00      -9.42 -999.99   -9.42    0.00000     0.00  LINEAR    1.58172E-01  -137.32    0.00000E+00     0.00
 -155.00     5.00      -7.45 -999.99   -7.45    0.00000     0.00  LINEAR    1.98506E-01  -147.51    0.00000E+00     0.00
 -150.00     5.00      -5.83 -999.99   -5.83    0.00000     0.00  LINEAR    2.39105E-01  -157.29    0.00000E+00     0.00
 -145.00     5.00      -4.47 -999.99   -4.47    0.00000     0.00  LINEAR    2.79770E-01  -166.57    0.00000E+00     0.00
 -140.00     5.00      -3.30 -999.99   -3.30    0.00000     0.00  LINEAR    3.20184E-01  -175.28    0.00000E+00     0.00
 -135.00     5.00      -2.28 -999.99   -2.28    0.00000     0.00  LINEAR    3.59905E-01   176.63    0.00000E+00     0.00
 -130.00     5.00      -1.40 -999.99   -1.40    0.00000     0.00  LINEAR    3.98370E-01   169.22    0.00000E+00     0.00
 -125.00     5.00      -0.64 -999.99   -0.64    0.00000     0.00  LINEAR    4.34915E-01   162.55    0.00000E+00     0.00
 -120.00     5.00       0.02 -999.99    0.02    0.00000     0.00  LINEAR    4.68797E-01   156.68    0.00000E+00     0.00
 -115.00     5.00       0.56 -999.99    0.56    0.00000     0.00  LINEAR    4.99233E-01   151.63    0.00000E+00     0.00
 -110.00     5.00       1.01 -999.99    1.01    0.00000     0.00  LINEAR    5.25444E-01   147.44    0.00000E+00     0.00
 -105.00     5.00       1.35 -999.99    1.35    0.00000     0.00  LINEAR    5.46702E-01   144.16    0.00000E+00     0.00
 -100.00     5.00       1.60 -999.99    1.60    0.00000     0.00  LINEAR    5.62378E-01   141.79    0.00000E+00     0.00
  -95.00     5.00       1.74 -999.99    1.74    0.00000     0.00  LINEAR    5.71988E-01   140.36    0.00000E+00     0.00
  -90.00     5.00       1.79 -999.99    1.79    0.00000     0.00  LINEAR    5.75226E-01   139.89    0.00000E+00     0.00
  -85.00     5.00       1.74 -999.99    1.74    0.00000     0.00  LINEAR    5.71988E-01   140.36    0.00000E+00     0.00
  -80.00     5.00       1.60 -999.99    1.60    0.00000     0.00  LINEAR    5.62378E-01   141.79    0.00000E+00     0.00
  -75.00     5.00       1.35 -999.99    1.35    0.00000     0.00  LINEAR    5.46702E-01   144.16    0.00000E+00     0.00
  -70.00     5.00       1.01 -999.99    1.01    0.00000     0.00  LINEAR    5.25444E-01   147.44    0.00000E+00     0.00
  -65.00     5.00       0.56 -999.99    0.56    0.00000     0.00  LINEAR    4.99233E-01   151.63    0.00000E+00     0.00
  -60.00     5.00       0.02 -999.99    0.02    0.00000     0.00  LINEAR    4.68797E-01   156.68    0.00000E+00     0.00
  -55.00     5.00      -0.64 -999.99   -0.64    0.00000     0.00  LINEAR    4.34915E-01   162.55    0.00000E+00     0.00
  -50.00     5.00      -1.40 -999.99   -1.40    0.00000     0.00  LINEAR    3.98370E-01   169.22    0.00000E+00     0.00
  -45.00     5.00      -2.28 -999.99   -2.28    0.00000     0.00  LINEAR    3.59905E-01   176.63    0.00000E+00     0.00
  -40.00     5.00      -3.30 -999.99   -3.30    0.00000     0.00  LINEAR    3.20184E-01  -175.28    0.00000E+00     0.00
  -35.00     5.00      -4.47 -999.99   -4.47    0.00000     0.00  LINEAR    2.79770E-01  -166.57    0.00000E+00     0.00
  -30.00     5.00      -5.83 -999.99   -5.83    0.00000     0.00  LINEAR    2.39105E-01  -157.29    0.00000E+00     0.00
  -25.00     5.00      -7.45 -999.99   -7.45    0.00000     0.00  LINEAR    1.98506E-01  -147.51    0.00000E+00     0.00
  -20.00     5.00      -9.42 -999.99   -9.42    0.00000     0.00  LINEAR    1.58172E-01  -137.32    0.00000E+00     0.00
  -15.00     5.00     -11.95 -999.99  -11.95    0.00000     0.00  LINEAR    1.18191E-01  -126.78    0.00000E+00     0.00
  -10.00     5.00     -15.50 -999.99  -15.50    0.00000     0.00  LINEAR    7.85589E-02  -115.99    0.00000E+00     0.00
   -5.00     5.00     -21.54 -999.99  -21.54    0.00000     0.00  LINEAR    3.92028E-02  -105.02    0.00000E+00     0.00
    0.00     5.00    -999.99 -999.99 -999.99    0.00000     0.00            0.00000E+00     0.00    0.00000E+00     0.00
 -180.00    10.00    -999.99 -999.99 -999.99    0.00000     0.00            4.58188E-12    86.03    0.00000E+00     0.00
 -175.00    10.00     -21.54 -999.99  -21.54    0.00000     0.00  LINEAR    3.92001E-02  -115.98    0.00000E+00     0.00
 -170.00    10.00     -15.50 -999.99  -15.50    0.00000     0.00  LINEAR    7.85287E-02  -137.79    0.00000E+00     0.00
 -165.00    10.00     -11.96 -999.99  -11.96    0.00000     0.00  LINEAR    1.18098E-01  -159.21    0.00000E+00     0.00
 -160.00    10.00      -9.43 -999.99   -9.43    0.00000     0.00  LINEAR    1.58004E-01   179.95    0.00000E+00     0.00
 -155.00    10.00      -7.46 -999.99   -7.46    0.00000     0.00  LINEAR    1.98286E-01   159.83    0.00000E+00     0.00
 -150.00    10.00      -5.84 -999.99   -5.84    0.00000     0.00  LINEAR    2.38887E-01   140.56    0.00000E+00     0.00
 -145.00    10.00      -4.47 -999.99   -4.47    0.00000     0.00  LINEAR    2.79603E-01   122.25    0.00000E+00     0.00
 -140.00    10.00      -3.30 -999.99   -3.30    0.00000     0.00  LINEAR    3.20071E-01   105.02    0.00000E+00     0.00
 -135.00    10.00      -2.28 -999.99   -2.28    0.00000     0.00  LINEAR    3.59772E-01    88.98    0.00000E+00     0.00
 -130.00    10.00      -1.41 -999.99   -1.41    0.00000     0.00  LINEAR    3.98071E-01    74.24    0.00000E+00     0.00
 -125.00    10.00      -0.65 -999.99   -0.65    0.00000     0.00  LINEAR    4.34254E-01    60.93    0.00000E+00     0.00
 -120.00    10.00      -0.01 -999.99   -0.01    0.00000     0.00  LINEAR    4.67579E-01    49.15    0.00000E+00     0.00
 -115.00    10.00       0.53 -999.99    0.53    0.00000     0.00  LINEAR    4.97309E-01    39.00    0.00000E+00     0.00
 -110.00    10.00       0.96 -999.99    0.96    0.00000     0.00  LINEAR    5.22747E-01    30.58    0.00000E+00     0.00
 -105.00    10.00       1.30 -999.99    1.30    0.00000     0.00  LINEAR    5.43264E-01    23.95    0.00000E+00     0.00
 -100.00    10.00       1.53 -999.99    1.53    0.00000     0.00  LINEAR    5.58330E-01    19.18    0.00000E+00     0.00
  -95.00    10.00       1.68 -999.99    1.68    0.00000     0.00  LINEAR    5.67539E-01    16.30    0.00000E+00     0.00
  -90.00    10.00       1.72 -999.99    1.72    0.00000     0.00  LINEAR    5.70638E-01    15.33    0.00000E+00     0.00
  -85.00    10.00       1.68 -999.99    1.68    0.00000     0.00  LINEAR    5.67539E-01    16.30    0.00000E+00     0.00
  -80.00    10.00       1.53 -999.99    1.53    0.00000     0.00  LINEAR    5.58330E-01    19.18    0.00000E+00     0.00
  -75.00    10.00       1.30 -999.99    1.30    0.00000     0.00  LINEAR    5.43264E-01    23.95    0.00000E+00     0.00
  -70.00    10.00       0.96 -999.99    0.96    0.00000     0.00  LINEAR    5.22747E-01    30.58    0.00000E+00     0.00
  -65.00    10.00       0.53 -999.99    0.53    0.00000     0.00  LINEAR    4.97309E-01    39.00    0.00000E+00     0.00
  -60.00    10.00      -0.01 -999.99   -0.01    0.00000     0.00  LINEAR    4.67579E-01    49.15    0.00000E+00     0.00
  -55.00    10.00      -0.65 -999.99   -0.65    0.00000     0.00  LINEAR    4.34254E-01    60.93    0.00000E+00     0.00
  -50.00    10.00      -1.41 -999.99   -1.41    0.00000     0.00  LINEAR    3.98071E-01    74.24    0.00000E+00     0.00
  -45.00    10.00      -2.28 -999.99   -2.28    0.00000     0.00  LINEAR    3.59772E-01    88.98    0.00000E+00     0.00
  -40.00    10.00      -3.30 -999.99   -3.30    0.00000     0.00  LINEAR    3.20071E-01   105.02    0.00000E+00     0.00
  -35.00    10.00      -4.47 -999.99   -4.47    0.00000     0.00  LINEAR    2.79603E-01   122.25    0.00000E+00     0.00
  -30.00    10.00      -5.84 -999.99   -5.84    0.00000     0.00  LINEAR    2.38887E-01   140.56    0.00000E+00     0.00
  -25.00    10.00      -7.46 -999.99   -7.46    0.00000     0.00  LINEAR    1.98286E-01   159.83    0.00000E+00     0.00
  -20.00    10.00      -9.43 -999.99   -9.43    0.00000     0.00  LINEAR    1.58004E-01   179.95    0.00000E+00     0.00
  -15.00    10.00     -11.96 -999.99  -11.96    0.00000     0.00  LINEAR    1.18098E-01  -159.21    0.00000E+00     0.00
  -10.00    10.00     -15.50 -999.99  -15.50    0.00000     0.00  LINEAR    7.85287E-02  -137.79    0.00000E+00     0.00
   -5.00    10.00     -21.54 -999.99  -21.54    0.00000     0.00  LINEAR    3.92001E-02  -115.98    0.00000E+00     0.00
    0.00    10.00    -999.99 -999.99 -999.99    0.00000     0.00            0.00000E+00     0.00    0.00000E+00     0.00
 -180.00    15.00    -999.99 -999.99 -999.99    0.00000     0.00            4.58188E-12    86.03    0.00000E+00     0.00
 -175.00    15.00     -21.54 -999.99  -21.54    0.00000     0.00  LINEAR    3.91940E-02  -126.76    0.00000E+00     0.00
 -170.00    15.00     -15.51 -999.99  -15.51    0.00000     0.00  LINEAR    7.84854E-02  -159.20    0.00000E+00     0.00
 -165.00    15.00     -11.97 -999.99  -11.97    0.00000     0.00  LINEAR    1.18017E-01   169.05    0.00000E+00     0.00
 -160.00    15.00      -9.43 -999.99   -9.43    0.00000     0.00  LINEAR    1.57949E-01   138.17    0.00000E+00     0.00
 -155.00    15.00      -7.46 -999.99   -7.46    0.00000     0.00  LINEAR    1.98300E-01   108.29    0.00000E+00     0.00
 -150.00    15.00      -5.84 -999.99   -5.84    0.00000     0.00  LINEAR    2.38808E-01    79.53    0.00000E+00     0.00
 -145.00    15.00      -4.49 -999.99   -4.49    0.00000     0.00  LINEAR    2.78959E-01    52.05    0.00000E+00     0.00
 -140.00    15.00      -3.35 -999.99   -3.35    0.00000     0.00  LINEAR    3.18142E-01    26.07    0.00000E+00     0.00
 -135.00    15.00      -2.38 -999.99   -2.38    0.00000     0.00  LINEAR    3.55826E-01     1.83    0.00000E+00     0.00
 -130.00    15.00      -1.55 -999.99   -1.55    0.00000     0.00  LINEAR    3.91605E-01   -20.45    0.00000E+00     0.00
 -125.00    15.00      -0.83 -999.99   -0.83    0.00000     0.00  LINEAR    4.25136E-01   -40.53    0.00000E+00     0.00
 -120.00    15.00      -0.22 -999.99   -0.22    0.00000     0.00  LINEAR    4.56031E-01   -58.25    0.00000E+00     0.00
 -115.00    15.00       0.29 -999.99    0.29    0.00000     0.00  LINEAR    4.83785E-01   -73.47    0.00000E+00     0.00
 -110.00    15.00       0.71 -999.99    0.71    0.00000     0.00  LINEAR    5.07779E-01   -86.07    0.00000E+00     0.00
 -105.00    15.00       1.04 -999.99    1.04    0.00000     0.00  LINEAR    5.27341E-01   -95.96    0.00000E+00     0.00
 -100.00    15.00       1.27 -999.99    1.27    0.00000     0.00  LINEAR    5.41838E-01  -103.08    0.00000E+00     0.00
  -95.00    15.00       1.41 -999.99    1.41    0.00000     0.00  LINEAR    5.50758E-01  -107.37    0.00000E+00     0.00
  -90.00    15.00       1.46 -999.99    1.46    0.00000     0.00  LINEAR    5.53769E-01  -108.80    0.00000E+00     0.00
  -85.00    15.00       1.41 -999.99    1.41    0.00000     0.00  LINEAR    5.50758E-01  -107.37    0.00000E+00     0.00
  -80.00    15.00       1.27 -999.99    1.27    0.00000     0.00  LINEAR    5.41838E-01  -103.08    0.00000E+00     0.00
  -75.00    15.00       1.04 -999.99    1.04    0.00000     0.00  LINEAR    5.27341E-01   -95.96    0.00000E+00     0.00
  -70.00    15.00       0.71 -999.99    0.71    0.00000     0.00  LINEAR    5.07779E-01   -86.07    0.00000E+00     0.00
  -65.00    15.00       0.29 -999.99    0.29    0.00000     0.00  LINEAR    4.83785E-01   -73.47    0.00000E+00     0.00
  -60.00    15.00      -0.22 -999.99   -0.22    0.00000     0.00  LINEAR    4.56031E-01   -58.25    0.00000E+00     0.00
  -55.00    15.00      -0.83 -999.99   -0.83    0.00000     0.00  LINEAR    4.25136E-01   -40.53    0.00000E+00     0.00
  -50.00    15.00      -1.55 -999.99   -1.55    0.00000     0.00  LINEAR    3.91605E-01   -20.45    0.00000E+00     0.00
  -45.00    15.00      -2.38 -999.99   -2.38    0.00000     0.00  LINEAR    3.55826E-01     1.83    0.00000E+00     0.00
  -40.00    15.00      -3.35 -999.99   -3.35    0.00000     0.00  LINEAR    3.18142E-01    26.07    0.00000E+00     0.00
  -35.00    15.00      -4.49 -999.99   -4.49    0.00000     0.00  LINEAR    2.78959E-01    52.05    0.00000E+00     0.00
  -30.00    15.00      -5.84 -999.99   -5.84    0.00000     0.00  LINEAR    2.38808E-01    79.53    0.00000E+00     0.00
  -25.00    15.00      -7.46 -999.99   -7.46    0.00000     0.00  LINEAR    1.98300E-01   108.29    0.00000E+00     0.00
  -20.00    15.00      -9.43 -999.99   -9.43    0.00000     0.00  LINEAR    1.57949E-01   138.17    0.00000E+00     0.00
  -15.00    15.00     -11.97 -999.99  -11.97    0.00000     0.00  LINEAR    1.18017E-01   169.05    0.00000E+00     0.00
  -10.00    15.00     -15.51 -999.99  -15.51    0.00000     0.00  LINEAR    7.84854E-02  -159.20    0.00000E+00     0.00
   -5.00    15.00     -21.54 -999.99  -21.54    0.00000     0.00  LINEAR    3.91940E-02  -126.76    0.00000E+00     0.00
    0.00    15.00    -999.99 -999.99 -999.99    0.00000     0.00            0.00000E+00     0.00    0.00000E+00     0.00
 -180.00    20.00    -999.99 -999.99 -999.99    0.00000     0.00            4.58188E-12    86.03    0.00000E+00     0.00
 -175.00    20.00     -21.54 -999.99  -21.54    0.00000     0.00  LINEAR    3.91855E-02  -137.29    0.00000E+00     0.00
 -170.00    20.00     -15.51 -999.99  -15.51    0.00000     0.00  LINEAR    7.84460E-02   179.98    0.00000E+00     0.00
 -165.00    20.00     -11.97 -999.99  -11.97    0.00000     0.00  LINEAR    1.17998E-01   138.18    0.00000E+00     0.00
 -160.00    20.00      -9.43 -999.99   -9.43    0.00000     0.00  LINEAR    1.57961E-01    97.42    0.00000E+00     0.00
 -155.00    20.00      -7.47 -999.99   -7.47    0.00000     0.00  LINEAR    1.97943E-01    57.74    0.00000E+00     0.00
 -150.00    20.00      -5.90 -999.99   -5.90    0.00000     0.00  LINEAR    2.37171E-01    19.37    0.00000E+00     0.00
 -145.00    20.00      -4.61 -999.99   -4.61    0.00000     0.00  LINEAR    2.75113E-01   -17.32    0.00000E+00     0.00
 -140.00    20.00      -3.53 -999.99   -3.53    0.00000     0.00  LINEAR    3.11853E-01   -51.89    0.00000E+00     0.00
 -135.00    20.00      -2.58 -999.99   -2.58    0.00000     0.00  LINEAR    3.47820E-01   -83.98    0.00000E+00     0.00
 -130.00    20.00      -1.74 -999.99   -1.74    0.00000     0.00  LINEAR    3.83185E-01  -113.31    0.00000E+00     0.00
 -125.00    20.00      -0.99 -999.99   -0.99    0.00000     0.00  LINEAR    4.17492E-01  -139.71    0.00000E+00     0.00
 -120.00    20.00      -0.34 -999.99   -0.34    0.00000     0.00  LINEAR    4.49747E-01  -163.00    0.00000E+00     0.00
 -115.00    20.00       0.20 -999.99    0.20    0.00000     0.00  LINEAR    4.78776E-01   176.98    0.00000E+00     0.00
 -110.00    20.00       0.64 -999.99    0.64    0.00000     0.00  LINEAR    5.03553E-01   160.37    0.00000E+00     0.00
 -105.00    20.00       0.97 -999.99    0.97    0.00000     0.00  LINEAR    5.23348E-01   147.30    0.00000E+00     0.00
 -100.00    20.00       1.21 -999.99    1.21    0.00000     0.00  LINEAR    5.37716E-01   137.90    0.00000E+00     0.00
  -95.00    20.00       1.35 -999.99    1.35    0.00000     0.00  LINEAR    5.46412E-01   132.22    0.00000E+00     0.00
  -90.00    20.00       1.39 -999.99    1.39    0.00000     0.00  LINEAR    5.49323E-01   130.32    0.00000E+00     0.00
  -85.00    20.00       1.35 -999.99    1.35    0.00000     0.00  LINEAR    5.46412E-01   132.22    0.00000E+00     0.00
  -80.00    20.00       1.21 -999.99    1.21    0.00000     0.00  LINEAR    5.37716E-01   137.90    0.00000E+00     0.00
  -75.00    20.00       0.97 -999.99    0.97    0.00000     0.00  LINEAR    5.23348E-01   147.30    0.00000E+00     0.00
  -70.00    20.00       0.64 -999.99    0.64    0.00000     0.00  LINEAR    5.03553E-01   160.37    0.00000E+00     0.00
  -65.00    20.00       0.20 -999.99    0.20    0.00000     0.00  LINEAR    4.78776E-01   176.98    0.00000E+00     0.00
  -60.00    20.00      -0.34 -999.99   -0.34    0.00000     0.00  LINEAR    4.49747E-01  -163.00    0.00000E+00     0.00
  -55.00    20.00      -0.99 -999.99   -0.99    0.00000     0.00  LINEAR    4.17492E-01  -139.71    0.00000E+00     0.00
  -50.00    20.00      -1.74 -999.99   -1.74    0.00000     0.00  LINEAR    3.83185E-01  -113.31    0.00000E+00     0.00
  -45.00    20.00      -2.58 -999.99   -2.58    0.00000     0.00  LINEAR    3.47820E-01   -83.98    0.00000E+00     0.00
  -40.00    20.00      -3.53 -999.99   -3.53    0.00000     0.00  LINEAR    3.11853E-01   -51.89    0.00000E+00     0.00
  -35.00    20.00      -4.61 -999.99   -4.61    0.00000     0.00  LINEAR    2.75113E-01   -17.32    0.00000E+00     0.00
  -30.00    20.00      -5.90 -999.99   -5.90    0.00000     0.00  LINEAR    2.37171E-01    19.37    0.00000E+00     0.00
  -25.00    20.00      -7.47 -999.99   -7.47    0.00000     0.00  LINEAR    1.97943E-01    57.74    0.00000E+00     0.00
  -20.00    20.00      -9.43 -999.99   -9.43    0.00000     0.00  LINEAR    1.57961E-01    97.42    0.00000E+00     0.00
  -15.00    20.00     -11.97 -999.99  -11.97    0.00000     0.00  LINEAR    1.17998E-01   138.18    0.00000E+00     0.00
  -10.00    20.00     -15.51 -999.99  -15.51    0.00000     0.00  LINEAR    7.84460E-02   179.98    0.00000E+00     0.00
   -5.00    20.00     -21.54 -999.99  -21.54    0.00000     0.00  LINEAR    3.91855E-02  -137.29    0.00000E+00     0.00
    0.00    20.00    -999.99 -999.99 -999.99    0.00000     0.00            0.00000E+00     0.00    0.00000E+00     0.00
 -180.00    25.00    -999.99 -999.99 -999.99    0.00000     0.00            4.58188E-12    86.03    0.00000E+00     0.00
 -175.00    25.00     -21.54 -999.99  -21.54    0.00000     0.00  LINEAR    3.91756E-02  -147.46    0.00000E+00     0.00
 -170.00    25.00     -15.52 -999.99  -15.52    0.00000     0.00  LINEAR    7.84229E-02   159.87    0.00000E+00     0.00
 -165.00    25.00     -11.97 -999.99  -11.97    0.00000     0.00  LINEAR    1.18013E-01   108.32    0.00000E+00     0.00
 -160.00    25.00      -9.45 -999.99   -9.45    0.00000     0.00  LINEAR    1.57684E-01    57.76    0.00000E+00     0.00
 -155.00    25.00      -7.54 -999.99   -7.54    0.00000     0.00  LINEAR    1.96384E-01     8.34    0.00000E+00     0.00
 -150.00    25.00      -6.03 -999.99   -6.03    0.00000     0.00  LINEAR    2.33597E-01   -39.39    0.00000E+00     0.00
 -145.00    25.00      -4.77 -999.99   -4.77    0.00000     0.00  LINEAR    2.70221E-01   -84.74    0.00000E+00     0.00
 -140.00    25.00      -3.65 -999.99   -3.65    0.00000     0.00  LINEAR    3.07457E-01  -127.28    0.00000E+00     0.00
 -135.00    25.00      -2.64 -999.99   -2.64    0.00000     0.00  LINEAR    3.45145E-01  -166.76    0.00000E+00     0.00
 -130.00    25.00      -1.77 -999.99   -1.77    0.00000     0.00  LINEAR    3.81581E-01   157.03    0.00000E+00     0.00
 -125.00    25.00      -1.05 -999.99   -1.05    0.00000     0.00  LINEAR    4.14751E-01   124.34    0.00000E+00     0.00
 -120.00    25.00      -0.47 -999.99   -0.47    0.00000     0.00  LINEAR    4.43471E-01    95.46    0.00000E+00     0.00
 -115.00    25.00      -0.01 -999.99   -0.01    0.00000     0.00  LINEAR    4.67536E-01    70.63    0.00000E+00     0.00
 -110.00    25.00       0.35 -999.99    0.35    0.00000     0.00  LINEAR    4.87205E-01    50.04    0.00000E+00     0.00
 -105.00    25.00       0.62 -999.99    0.62    0.00000     0.00  LINEAR    5.02695E-01    33.86    0.00000E+00     0.00
 -100.00    25.00       0.81 -999.99    0.81    0.00000     0.00  LINEAR    5.13984E-01    22.21    0.00000E+00     0.00
  -95.00    25.00       0.93 -999.99    0.93    0.00000     0.00  LINEAR    5.20888E-01    15.18    0.00000E+00     0.00
  -90.00    25.00       0.97 -999.99    0.97    0.00000     0.00  LINEAR    5.23215E-01    12.83    0.00000E+00     0.00
  -85.00    25.00       0.93 -999.99    0.93    0.00000     0.00  LINEAR    5.20888E-01    15.18    0.00000E+00     0.00
  -80.00    25.00       0.81 -999.99    0.81    0.00000     0.00  LINEAR    5.13984E-01    22.21    0.00000E+00     0.00
  -75.00    25.00       0.62 -999.99    0.62    0.00000     0.00  LINEAR    5.02695E-01    33.86    0.00000E+00     0.00
  -70.00    25.00       0.35 -999.99    0.35    0.00000     0.00  LINEAR    4.87205E-01    50.04    0.00000E+00     0.00
  -65.00    25.00      -0.01 -999.99   -0.01    0.00000     0.00  LINEAR    4.67536E-01    70.63    0.00000E+00     0.00
  -60.00    25.00      -0.47 -999.99   -0.47    0.00000     0.00  LINEAR    4.43471E-01    95.46    0.00000E+00     0.00
  -55.00    25.00      -1.05 -999.99   -1.05    0.00000     0.00  LINEAR    4.14751E-01   124.34    0.00000E+00     0.00
  -50.00    25.00      -1.77 -999.99   -1.77    0.00000     0.00  LINEAR    3.81581E-01   157.03    0.00000E+00     0.00
  -45.00    25.00      -2.64 -999.99   -2.64    0.00000     0.00  LINEAR    3.45145E-01  -166.76    0.00000E+00     0.00
  -40.00    25.00      -3.65 -999.99   -3.65    0.00000     0.00  LINEAR    3.07457E-01  -127.28    0.00000E+00     0.00
  -35.00    25.00      -4.77 -999.99   -4.77    0.00000     0.00  LINEAR    2.70221E-01   -84.74    0.00000E+00     0.00
  -30.00    25.00      -6.03 -999.99   -6.03    0.00000     0.00  LINEAR    2.33597E-01   -39.39    0.00000E+00     0.00
  -25.00    25.00      -7.54 -999.99   -7.54    0.00000     0.00  LINEAR    1.96384E-01     8.34    0.00000E+00     0.00
  -20.00    25.00      -9.45 -999.99   -9.45    0.00000     0.00  LINEAR    1.57684E-01    57.76    0.00000E+00     0.00
  -15.00    25.00     -11.97 -999.99  -11.97    0.00000     0.00  LINEAR    1.18013E-01   108.32    0.00000E+00     0.00
  -10.00    25.00     -15.52 -999.99  -15.52    0.00000     0.00  LINEAR    7.84229E-02   159.87    0.00000E+00     0.00
   -5.00    25.00     -21.54 -999.99  -21.54    0.00000     0.00  LINEAR    3.91756E-02  -147.46    0.00000E+00     0.00
    0.00    25.00    -999.99 -999.99 -999.99    0.00000     0.00            0.00000E+00     0.00    0.00000E+00     0.00
 -180.00    30.00    -999.99 -999.99 -999.99    0.00000     0.00            4.58188E-12    86.03    0.00000E+00     0.00
 -175.00    30.00     -21.55 -999.99  -21.55    0.00000     0.00  LINEAR    3.91654E-02  -157.22    0.00000E+00     0.00
 -170.00    30.00     -15.52 -999.99  -15.52    0.00000     0.00  LINEAR    7.84185E-02   140.62    0.00000E+00     0.00
 -165.00    30.00     -11.97 -999.99  -11.97    0.00000     0.00  LINEAR    1.17960E-01    79.58    0.00000E+00     0.00
 -160.00    30.00      -9.50 -999.99   -9.50    0.00000     0.00  LINEAR    1.56814E-01    19.41    0.00000E+00     0.00
 -155.00    30.00      -7.65 -999.99   -7.65    0.00000     0.00  LINEAR    1.93882E-01   -39.37    0.00000E+00     0.00
 -150.00    30.00      -6.15 -999.99   -6.15    0.00000     0.00  LINEAR    2.30395E-01   -95.77    0.00000E+00     0.00
 -145.00    30.00      -4.83 -999.99   -4.83    0.00000     0.00  LINEAR    2.68286E-01  -149.22    0.00000E+00     0.00
 -140.00    30.00      -3.67 -999.99   -3.67    0.00000     0.00  LINEAR    3.06659E-01   160.50    0.00000E+00     0.00
 -135.00    30.00      -2.72 -999.99   -2.72    0.00000     0.00  LINEAR    3.42254E-01   113.66    0.00000E+00     0.00
 -130.00    30.00      -1.97 -999.99   -1.97    0.00000     0.00  LINEAR    3.72976E-01    70.69    0.00000E+00     0.00
 -125.00    30.00      -1.38 -999.99   -1.38    0.00000     0.00  LINEAR    3.99398E-01    31.96    0.00000E+00     0.00
 -120.00    30.00      -0.87 -999.99   -0.87    0.00000     0.00  LINEAR    4.23179E-01    -2.29    0.00000E+00     0.00
 -115.00    30.00      -0.43 -999.99   -0.43    0.00000     0.00  LINEAR    4.45155E-01   -31.84    0.00000E+00     0.00
 -110.00    30.00      -0.06 -999.99   -0.06    0.00000     0.00  LINEAR    4.64923E-01   -56.45    0.00000E+00     0.00
 -105.00    30.00       0.25 -999.99    0.25    0.00000     0.00  LINEAR    4.81477E-01   -75.86    0.00000E+00     0.00
 -100.00    30.00       0.47 -999.99    0.47    0.00000     0.00  LINEAR    4.93874E-01   -89.86    0.00000E+00     0.00
  -95.00    30.00       0.60 -999.99    0.60    0.00000     0.00  LINEAR    5.01506E-01   -98.32    0.00000E+00     0.00
  -90.00    30.00       0.65 -999.99    0.65    0.00000     0.00  LINEAR    5.04078E-01  -101.15    0.00000E+00     0.00
  -85.00    30.00       0.60 -999.99    0.60    0.00000     0.00  LINEAR    5.01506E-01   -98.32    0.00000E+00     0.00
  -80.00    30.00       0.47 -999.99    0.47    0.00000     0.00  LINEAR    4.93874E-01   -89.86    0.00000E+00     0.00
  -75.00    30.00       0.25 -999.99    0.25    0.00000     0.00  LINEAR    4.81477E-01   -75.86    0.00000E+00     0.00
  -70.00    30.00      -0.06 -999.99   -0.06    0.00000     0.00  LINEAR    4.64923E-01   -56.45    0.00000E+00     0.00
  -65.00    30.00      -0.43 -999.99   -0.43    0.00000     0.00  LINEAR    4.45155E-01   -31.84    0.00000E+00     0.00
  -60.00    30.00      -0.87 -999.99   -0.87    0.00000     0.00  LINEAR    4.23179E-01    -2.29    0.00000E+00     0.00
  -55.00    30.00      -1.38 -999.99   -1.38    0.00000     0.00  LINEAR    3.99398E-01    31.96    0.00000E+00     0.00
  -50.00    30.00      -1.97 -999.99   -1.97    0.00000     0.00  LINEAR    3.72976E-01    70.69    0.00000E+00     0.00
  -45.00    30.00      -2.72 -999.99   -2.72    0.00000     0.00  LINEAR    3.42254E-01   113.66    0.00000E+00     0.00
  -40.00    30.00      -3.67 -999.99   -3.67    0.00000     0.00  LINEAR    3.06659E-01   160.50    0.00000E+00     0.00
  -35.00    30.00      -4.83 -999.99   -4.83    0.00000     0.00  LINEAR    2.68286E-01  -149.22    0.00000E+00     0.00
  -30.00    30.00      -6.15 -999.99   -6.15    0.00000     0.00  LINEAR    2.30395E-01   -95.77    0.00000E+00     0.00
  -25.00    30.00      -7.65 -999.99   -7.65    0.00000     0.00  LINEAR    1.93882E-01   -39.37    0.00000E+00     0.00
  -20.00    30.00      -9.50 -999.99   -9.50    0.00000     0.00  LINEAR    1.56814E-01    19.41    0.00000E+00     0.00
  -15.00    30.00     -11.97 -999.99  -11.97    0.00000     0.00  LINEAR    1.17960E-01    79.58    0.00000E+00     0.00
  -10.00    30.00     -15.52 -999.99  -15.52    0.00000     0.00  LINEAR    7.84185E-02   140.62    0.00000E+00     0.00
   -5.00    30.00     -21.55 -999.99  -21.55    0.00000     0.00  LINEAR    3.91654E-02  -157.22    0.00000E+00     0.00
    0.00    30.00    -999.99 -999.99 -999.99    0.00000     0.00            0.00000E+00     0.00    0.00000E+00     0.00
 -180.00    35.00    -999.99 -999.99 -999.99    0.00000     0.00            4.58188E-12    86.03    0.00000E+00     0.00
 -175.00    35.00     -21.55 -999.99  -21.55    0.00000     0.00  LINEAR    3.91559E-02  -166.47    0.00000E+00     0.00
 -170.00    35.00     -15.52 -999.99  -15.52    0.00000     0.00  LINEAR    7.84250E-02   122.34    0.00000E+00     0.00
 -165.00    35.00     -11.99 -999.99  -11.99    0.00000     0.00  LINEAR    1.17737E-01    52.13    0.00000E+00     0.00
 -160.00    35.00      -9.57 -999.99   -9.57    0.00000     0.00  LINEAR    1.55422E-01   -17.26    0.00000E+00     0.00
 -155.00    35.00      -7.75 -999.99   -7.75    0.00000     0.00  LINEAR    1.91631E-01   -84.70    0.00000E+00     0.00
 -150.00    35.00      -6.20 -999.99   -6.20    0.00000     0.00  LINEAR    2.29230E-01  -149.20    0.00000E+00     0.00
 -145.00    35.00      -4.85 -999.99   -4.85    0.00000     0.00  LINEAR    2.67644E-01   149.47    0.00000E+00     0.00
 -140.00    35.00      -3.80 -999.99   -3.80    0.00000     0.00  LINEAR    3.02286E-01    91.63    0.00000E+00     0.00
 -135.00    35.00      -3.00 -999.99   -3.00    0.00000     0.00  LINEAR    3.31427E-01    37.84    0.00000E+00     0.00
 -130.00    35.00      -2.33 -999.99   -2.33    0.00000     0.00  LINEAR    3.57999E-01   -11.57    0.00000E+00     0.00
[...]
  -70.00   340.00       0.63 -999.99    0.63    0.00000     0.00  LINEAR    5.03205E-01     6.08    0.00000E+00     0.00
  -65.00   340.00       0.19 -999.99    0.19    0.00000     0.00  LINEAR    4.78400E-01   -10.16    0.00000E+00     0.00
  -60.00   340.00      -0.35 -999.99   -0.35    0.00000     0.00  LINEAR    4.49363E-01   -29.74    0.00000E+00     0.00
  -55.00   340.00      -1.00 -999.99   -1.00    0.00000     0.00  LINEAR    4.17151E-01   -52.53    0.00000E+00     0.00
  -50.00   340.00      -1.74 -999.99   -1.74    0.00000     0.00  LINEAR    3.82964E-01   -78.37    0.00000E+00     0.00
  -45.00   340.00      -2.58 -999.99   -2.58    0.00000     0.00  LINEAR    3.47788E-01  -107.11    0.00000E+00     0.00
  -40.00   340.00      -3.52 -999.99   -3.52    0.00000     0.00  LINEAR    3.12017E-01  -138.59    0.00000E+00     0.00
  -35.00   340.00      -4.61 -999.99   -4.61    0.00000     0.00  LINEAR    2.75388E-01  -172.59    0.00000E+00     0.00
  -30.00   340.00      -5.89 -999.99   -5.89    0.00000     0.00  LINEAR    2.37419E-01   151.23    0.00000E+00     0.00
  -25.00   340.00      -7.47 -999.99   -7.47    0.00000     0.00  LINEAR    1.98056E-01   113.29    0.00000E+00     0.00
  -20.00   340.00      -9.43 -999.99   -9.43    0.00000     0.00  LINEAR    1.57932E-01    73.98    0.00000E+00     0.00
  -15.00   340.00     -11.97 -999.99  -11.97    0.00000     0.00  LINEAR    1.17904E-01    33.51    0.00000E+00     0.00
  -10.00   340.00     -15.52 -999.99  -15.52    0.00000     0.00  LINEAR    7.83715E-02    -8.08    0.00000E+00     0.00
   -5.00   340.00     -21.55 -999.99  -21.55    0.00000     0.00  LINEAR    3.91613E-02   -50.69    0.00000E+00     0.00
    0.00   340.00    -999.99 -999.99 -999.99    0.00000     0.00            0.00000E+00     0.00    0.00000E+00     0.00
 -180.00   345.00    -999.99 -999.99 -999.99    0.00000     0.00            4.58188E-12    86.03    0.00000E+00     0.00
 -175.00   345.00     -21.54 -999.99  -21.54    0.00000     0.00  LINEAR    3.91751E-02   -61.20    0.00000E+00     0.00
 -170.00   345.00     -15.52 -999.99  -15.52    0.00000     0.00  LINEAR    7.84194E-02   -28.84    0.00000E+00     0.00
 -165.00   345.00     -11.97 -999.99  -11.97    0.00000     0.00  LINEAR    1.17903E-01     2.79    0.00000E+00     0.00
 -160.00   345.00      -9.44 -999.99   -9.44    0.00000     0.00  LINEAR    1.57823E-01    33.49    0.00000E+00     0.00
 -155.00   345.00      -7.46 -999.99   -7.46    0.00000     0.00  LINEAR    1.98225E-01    63.15    0.00000E+00     0.00
 -150.00   345.00      -5.84 -999.99   -5.84    0.00000     0.00  LINEAR    2.38850E-01    91.66    0.00000E+00     0.00
 -145.00   345.00      -4.49 -999.99   -4.49    0.00000     0.00  LINEAR    2.79150E-01   118.84    0.00000E+00     0.00
 -140.00   345.00      -3.34 -999.99   -3.34    0.00000     0.00  LINEAR    3.18466E-01   144.51    0.00000E+00     0.00
 -135.00   345.00      -2.37 -999.99   -2.37    0.00000     0.00  LINEAR    3.56220E-01   168.42    0.00000E+00     0.00
 -130.00   345.00      -1.54 -999.99   -1.54    0.00000     0.00  LINEAR    3.91989E-01  -169.65    0.00000E+00     0.00
 -125.00   345.00      -0.83 -999.99   -0.83    0.00000     0.00  LINEAR    4.25440E-01  -149.91    0.00000E+00     0.00
 -120.00   345.00      -0.22 -999.99   -0.22    0.00000     0.00  LINEAR    4.56212E-01  -132.52    0.00000E+00     0.00
 -115.00   345.00       0.29 -999.99    0.29    0.00000     0.00  LINEAR    4.83830E-01  -117.60    0.00000E+00     0.00
 -110.00   345.00       0.71 -999.99    0.71    0.00000     0.00  LINEAR    5.07700E-01  -105.26    0.00000E+00     0.00
 -105.00   345.00       1.03 -999.99    1.03    0.00000     0.00  LINEAR    5.27164E-01   -95.58    0.00000E+00     0.00
 -100.00   345.00       1.27 -999.99    1.27    0.00000     0.00  LINEAR    5.41592E-01   -88.61    0.00000E+00     0.00
  -95.00   345.00       1.41 -999.99    1.41    0.00000     0.00  LINEAR    5.50472E-01   -84.42    0.00000E+00     0.00
  -90.00   345.00       1.46 -999.99    1.46    0.00000     0.00  LINEAR    5.53470E-01   -83.01    0.00000E+00     0.00
  -85.00   345.00       1.41 -999.99    1.41    0.00000     0.00  LINEAR    5.50472E-01   -84.42    0.00000E+00     0.00
  -80.00   345.00       1.27 -999.99    1.27    0.00000     0.00  LINEAR    5.41592E-01   -88.61    0.00000E+00     0.00
  -75.00   345.00       1.03 -999.99    1.03    0.00000     0.00  LINEAR    5.27164E-01   -95.58    0.00000E+00     0.00
  -70.00   345.00       0.71 -999.99    0.71    0.00000     0.00  LINEAR    5.07700E-01  -105.26    0.00000E+00     0.00
  -65.00   345.00       0.29 -999.99    0.29    0.00000     0.00  LINEAR    4.83830E-01  -117.60    0.00000E+00     0.00
  -60.00   345.00      -0.22 -999.99   -0.22    0.00000     0.00  LINEAR    4.56212E-01  -132.52    0.00000E+00     0.00
  -55.00   345.00      -0.83 -999.99   -0.83    0.00000     0.00  LINEAR    4.25440E-01  -149.91    0.00000E+00     0.00
  -50.00   345.00      -1.54 -999.99   -1.54    0.00000     0.00  LINEAR    3.91989E-01  -169.65    0.00000E+00     0.00
  -45.00   345.00      -2.37 -999.99   -2.37    0.00000     0.00  LINEAR    3.56220E-01   168.42    0.00000E+00     0.00
  -40.00   345.00      -3.34 -999.99   -3.34    0.00000     0.00  LINEAR    3.18466E-01   144.51    0.00000E+00     0.00
  -35.00   345.00      -4.49 -999.99   -4.49    0.00000     0.00  LINEAR    2.79150E-01   118.84    0.00000E+00     0.00
  -30.00   345.00      -5.84 -999.99   -5.84    0.00000     0.00  LINEAR    2.38850E-01    91.66    0.00000E+00     0.00
  -25.00   345.00      -7.46 -999.99   -7.46    0.00000     0.00  LINEAR    1.98225E-01    63.15    0.00000E+00     0.00
  -20.00   345.00      -9.44 -999.99   -9.44    0.00000     0.00  LINEAR    1.57823E-01    33.49    0.00000E+00     0.00
  -15.00   345.00     -11.97 -999.99  -11.97    0.00000     0.00  LINEAR    1.17903E-01     2.79    0.00000E+00     0.00
  -10.00   345.00     -15.52 -999.99  -15.52    0.00000     0.00  LINEAR    7.84194E-02   -28.84    0.00000E+00     0.00
   -5.00   345.00     -21.54 -999.99  -21.54    0.00000     0.00  LINEAR    3.91751E-02   -61.20    0.00000E+00     0.00
    0.00   345.00    -999.99 -999.99 -999.99    0.00000     0.00            0.00000E+00     0.00    0.00000E+00     0.00
 -180.00   350.00    -999.99 -999.99 -999.99    0.00000     0.00            4.58188E-12    86.03    0.00000E+00     0.00
 -175.00   350.00     -21.54 -999.99  -21.54    0.00000     0.00  LINEAR    3.91871E-02   -71.97    0.00000E+00     0.00
 -170.00   350.00     -15.51 -999.99  -15.51    0.00000     0.00  LINEAR    7.84796E-02   -50.20    0.00000E+00     0.00
 -165.00   350.00     -11.97 -999.99  -11.97    0.00000     0.00  LINEAR    1.17998E-01   -28.85    0.00000E+00     0.00
 -160.00   350.00      -9.44 -999.99   -9.44    0.00000     0.00  LINEAR    1.57852E-01    -8.10    0.00000E+00     0.00
 -155.00   350.00      -7.47 -999.99   -7.47    0.00000     0.00  LINEAR    1.98096E-01    11.90    0.00000E+00     0.00
 -150.00   350.00      -5.85 -999.99   -5.85    0.00000     0.00  LINEAR    2.38688E-01    31.04    0.00000E+00     0.00
 -145.00   350.00      -4.48 -999.99   -4.48    0.00000     0.00  LINEAR    2.79434E-01    49.20    0.00000E+00     0.00
 -140.00   350.00      -3.30 -999.99   -3.30    0.00000     0.00  LINEAR    3.19971E-01    66.27    0.00000E+00     0.00
 -135.00   350.00      -2.28 -999.99   -2.28    0.00000     0.00  LINEAR    3.59774E-01    82.15    0.00000E+00     0.00
 -130.00   350.00      -1.40 -999.99   -1.40    0.00000     0.00  LINEAR    3.98194E-01    96.72    0.00000E+00     0.00
 -125.00   350.00      -0.64 -999.99   -0.64    0.00000     0.00  LINEAR    4.34502E-01   109.87    0.00000E+00     0.00
 -120.00   350.00       0.00 -999.99    0.00    0.00000     0.00  LINEAR    4.67943E-01   121.50    0.00000E+00     0.00
 -115.00   350.00       0.54 -999.99    0.54    0.00000     0.00  LINEAR    4.97771E-01   131.50    0.00000E+00     0.00
 -110.00   350.00       0.97 -999.99    0.97    0.00000     0.00  LINEAR    5.23284E-01   139.81    0.00000E+00     0.00
 -105.00   350.00       1.31 -999.99    1.31    0.00000     0.00  LINEAR    5.43854E-01   146.34    0.00000E+00     0.00
 -100.00   350.00       1.54 -999.99    1.54    0.00000     0.00  LINEAR    5.58954E-01   151.04    0.00000E+00     0.00
  -95.00   350.00       1.69 -999.99    1.69    0.00000     0.00  LINEAR    5.68182E-01   153.88    0.00000E+00     0.00
  -90.00   350.00       1.73 -999.99    1.73    0.00000     0.00  LINEAR    5.71286E-01   154.83    0.00000E+00     0.00
  -85.00   350.00       1.69 -999.99    1.69    0.00000     0.00  LINEAR    5.68182E-01   153.88    0.00000E+00     0.00
  -80.00   350.00       1.54 -999.99    1.54    0.00000     0.00  LINEAR    5.58954E-01   151.04    0.00000E+00     0.00
  -75.00   350.00       1.31 -999.99    1.31    0.00000     0.00  LINEAR    5.43854E-01   146.34    0.00000E+00     0.00
  -70.00   350.00       0.97 -999.99    0.97    0.00000     0.00  LINEAR    5.23284E-01   139.81    0.00000E+00     0.00
  -65.00   350.00       0.54 -999.99    0.54    0.00000     0.00  LINEAR    4.97771E-01   131.50    0.00000E+00     0.00
  -60.00   350.00       0.00 -999.99    0.00    0.00000     0.00  LINEAR    4.67943E-01   121.50    0.00000E+00     0.00
  -55.00   350.00      -0.64 -999.99   -0.64    0.00000     0.00  LINEAR    4.34502E-01   109.87    0.00000E+00     0.00
  -50.00   350.00      -1.40 -999.99   -1.40    0.00000     0.00  LINEAR    3.98194E-01    96.72    0.00000E+00     0.00
  -45.00   350.00      -2.28 -999.99   -2.28    0.00000     0.00  LINEAR    3.59774E-01    82.15    0.00000E+00     0.00
  -40.00   350.00      -3.30 -999.99   -3.30    0.00000     0.00  LINEAR    3.19971E-01    66.27    0.00000E+00     0.00
  -35.00   350.00      -4.48 -999.99   -4.48    0.00000     0.00  LINEAR    2.79434E-01    49.20    0.00000E+00     0.00
  -30.00   350.00      -5.85 -999.99   -5.85    0.00000     0.00  LINEAR    2.38688E-01    31.04    0.00000E+00     0.00
  -25.00   350.00      -7.47 -999.99   -7.47    0.00000     0.00  LINEAR    1.98096E-01    11.90    0.00000E+00     0.00
  -20.00   350.00      -9.44 -999.99   -9.44    0.00000     0.00  LINEAR    1.57852E-01    -8.10    0.00000E+00     0.00
  -15.00   350.00     -11.97 -999.99  -11.97    0.00000     0.00  LINEAR    1.17998E-01   -28.85    0.00000E+00     0.00
  -10.00   350.00     -15.51 -999.99  -15.51    0.00000     0.00  LINEAR    7.84796E-02   -50.20    0.00000E+00     0.00
   -5.00   350.00     -21.54 -999.99  -21.54    0.00000     0.00  LINEAR    3.91871E-02   -71.97    0.00000E+00     0.00
    0.00   350.00    -999.99 -999.99 -999.99    0.00000     0.00            0.00000E+00     0.00    0.00000E+00     0.00
 -180.00   355.00    -999.99 -999.99 -999.99    0.00000     0.00            4.58188E-12    86.03    0.00000E+00     0.00
 -175.00   355.00     -21.54 -999.99  -21.54    0.00000     0.00  LINEAR    3.91962E-02   -82.92    0.00000E+00     0.00
 -170.00   355.00     -15.50 -999.99  -15.50    0.00000     0.00  LINEAR    7.85327E-02   -71.98    0.00000E+00     0.00
 -165.00   355.00     -11.96 -999.99  -11.96    0.00000     0.00  LINEAR    1.18133E-01   -61.21    0.00000E+00     0.00
 -160.00   355.00      -9.43 -999.99   -9.43    0.00000     0.00  LINEAR    1.58072E-01   -50.72    0.00000E+00     0.00
 -155.00   355.00      -7.46 -999.99   -7.46    0.00000     0.00  LINEAR    1.98356E-01   -40.58    0.00000E+00     0.00
 -150.00   355.00      -5.84 -999.99   -5.84    0.00000     0.00  LINEAR    2.38899E-01   -30.87    0.00000E+00     0.00
 -145.00   355.00      -4.48 -999.99   -4.48    0.00000     0.00  LINEAR    2.79506E-01   -21.66    0.00000E+00     0.00
 -140.00   355.00      -3.30 -999.99   -3.30    0.00000     0.00  LINEAR    3.19865E-01   -13.02    0.00000E+00     0.00
 -135.00   355.00      -2.29 -999.99   -2.29    0.00000     0.00  LINEAR    3.59534E-01    -5.01    0.00000E+00     0.00
 -130.00   355.00      -1.41 -999.99   -1.41    0.00000     0.00  LINEAR    3.97956E-01     2.32    0.00000E+00     0.00
 -125.00   355.00      -0.65 -999.99   -0.65    0.00000     0.00  LINEAR    4.34466E-01     8.92    0.00000E+00     0.00
 -120.00   355.00       0.01 -999.99    0.01    0.00000     0.00  LINEAR    4.68323E-01    14.73    0.00000E+00     0.00
 -115.00   355.00       0.55 -999.99    0.55    0.00000     0.00  LINEAR    4.98742E-01    19.72    0.00000E+00     0.00
 -110.00   355.00       1.00 -999.99    1.00    0.00000     0.00  LINEAR    5.24944E-01    23.86    0.00000E+00     0.00
 -105.00   355.00       1.34 -999.99    1.34    0.00000     0.00  LINEAR    5.46197E-01    27.10    0.00000E+00     0.00
 -100.00   355.00       1.59 -999.99    1.59    0.00000     0.00  LINEAR    5.61872E-01    29.44    0.00000E+00     0.00
  -95.00   355.00       1.74 -999.99    1.74    0.00000     0.00  LINEAR    5.71482E-01    30.84    0.00000E+00     0.00
  -90.00   355.00       1.78 -999.99    1.78    0.00000     0.00  LINEAR    5.74720E-01    31.32    0.00000E+00     0.00
  -85.00   355.00       1.74 -999.99    1.74    0.00000     0.00  LINEAR    5.71482E-01    30.84    0.00000E+00     0.00
  -80.00   355.00       1.59 -999.99    1.59    0.00000     0.00  LINEAR    5.61872E-01    29.44    0.00000E+00     0.00
  -75.00   355.00       1.34 -999.99    1.34    0.00000     0.00  LINEAR    5.46197E-01    27.10    0.00000E+00     0.00
  -70.00   355.00       1.00 -999.99    1.00    0.00000     0.00  LINEAR    5.24944E-01    23.86    0.00000E+00     0.00
  -65.00   355.00       0.55 -999.99    0.55    0.00000     0.00  LINEAR    4.98742E-01    19.72    0.00000E+00     0.00
  -60.00   355.00       0.01 -999.99    0.01    0.00000     0.00  LINEAR    4.68323E-01    14.73    0.00000E+00     0.00
  -55.00   355.00      -0.65 -999.99   -0.65    0.00000     0.00  LINEAR    4.34466E-01     8.92    0.00000E+00     0.00
  -50.00   355.00      -1.41 -999.99   -1.41    0.00000     0.00  LINEAR    3.97956E-01     2.32    0.00000E+00     0.00
  -45.00   355.00      -2.29 -999.99   -2.29    0.00000     0.00  LINEAR    3.59534E-01    -5.01    0.00000E+00     0.00
  -40.00   355.00      -3.30 -999.99   -3.30    0.00000     0.00  LINEAR    3.19865E-01   -13.02    0.00000E+00     0.00
  -35.00   355.00      -4.48 -999.99   -4.48    0.00000     0.00  LINEAR    2.79506E-01   -21.66    0.00000E+00     0.00
  -30.00   355.00      -5.84 -999.99   -5.84    0.00000     0.00  LINEAR    2.38899E-01   -30.87    0.00000E+00     0.00
  -25.00   355.00      -7.46 -999.99   -7.46    0.00000     0.00  LINEAR    1.98356E-01   -40.58    0.00000E+00     0.00
  -20.00   355.00      -9.43 -999.99   -9.43    0.00000     0.00  LINEAR    1.58072E-01   -50.72    0.00000E+00     0.00
  -15.00   355.00     -11.96 -999.99  -11.96    0.00000     0.00  LINEAR    1.18133E-01   -61.21    0.00000E+00     0.00
  -10.00   355.00     -15.50 -999.99  -15.50    0.00000     0.00  LINEAR    7.85327E-02   -71.98    0.00000E+00     0.00
   -5.00   355.00     -21.54 -999.99  -21.54    0.00000     0.00  LINEAR    3.91962E-02   -82.92    0.00000E+00     0.00
    0.00   355.00    -999.99 -999.99 -999.99    0.00000     0.00            0.00000E+00     0.00    0.00000E+00     0.00
 -180.00   360.00    -999.99 -999.99 -999.99    0.00000     0.00            4.58188E-12    86.03    0.00000E+00     0.00
 -175.00   360.00     -21.54 -999.99  -21.54    0.00000     0.00  LINEAR    3.92015E-02   -93.97    0.00000E+00     0.00
 -170.00   360.00     -15.50 -999.99  -15.50    0.00000     0.00  LINEAR    7.85618E-02   -93.98    0.00000E+00     0.00
 -165.00   360.00     -11.95 -999.99  -11.95    0.00000     0.00  LINEAR    1.18213E-01   -93.99    0.00000E+00     0.00
 -160.00   360.00      -9.42 -999.99   -9.42    0.00000     0.00  LINEAR    1.58236E-01   -94.00    0.00000E+00     0.00
 -155.00   360.00      -7.44 -999.99   -7.44    0.00000     0.00  LINEAR    1.98635E-01   -94.02    0.00000E+00     0.00
 -150.00   360.00      -5.82 -999.99   -5.82    0.00000     0.00  LINEAR    2.39320E-01   -94.04    0.00000E+00     0.00
 -145.00   360.00      -4.46 -999.99   -4.46    0.00000     0.00  LINEAR    2.80088E-01   -94.06    0.00000E+00     0.00
 -140.00   360.00      -3.28 -999.99   -3.28    0.00000     0.00  LINEAR    3.20612E-01   -94.09    0.00000E+00     0.00
 -135.00   360.00      -2.27 -999.99   -2.27    0.00000     0.00  LINEAR    3.60443E-01   -94.11    0.00000E+00     0.00
 -130.00   360.00      -1.38 -999.99   -1.38    0.00000     0.00  LINEAR    3.99013E-01   -94.13    0.00000E+00     0.00
 -125.00   360.00      -0.62 -999.99   -0.62    0.00000     0.00  LINEAR    4.35651E-01   -94.15    0.00000E+00     0.00
 -120.00   360.00       0.03 -999.99    0.03    0.00000     0.00  LINEAR    4.69613E-01   -94.17    0.00000E+00     0.00
 -115.00   360.00       0.58 -999.99    0.58    0.00000     0.00  LINEAR    5.00115E-01   -94.19    0.00000E+00     0.00
 -110.00   360.00       1.02 -999.99    1.02    0.00000     0.00  LINEAR    5.26377E-01   -94.21    0.00000E+00     0.00
 -105.00   360.00       1.37 -999.99    1.37    0.00000     0.00  LINEAR    5.47674E-01   -94.22    0.00000E+00     0.00
 -100.00   360.00       1.61 -999.99    1.61    0.00000     0.00  LINEAR    5.63376E-01   -94.23    0.00000E+00     0.00
  -95.00   360.00       1.76 -999.99    1.76    0.00000     0.00  LINEAR    5.73002E-01   -94.23    0.00000E+00     0.00
  -90.00   360.00       1.81 -999.99    1.81    0.00000     0.00  LINEAR    5.76246E-01   -94.24    0.00000E+00     0.00
  -85.00   360.00       1.76 -999.99    1.76    0.00000     0.00  LINEAR    5.73002E-01   -94.23    0.00000E+00     0.00
  -80.00   360.00       1.61 -999.99    1.61    0.00000     0.00  LINEAR    5.63376E-01   -94.23    0.00000E+00     0.00
  -75.00   360.00       1.37 -999.99    1.37    0.00000     0.00  LINEAR    5.47674E-01   -94.22    0.00000E+00     0.00
  -70.00   360.00       1.02 -999.99    1.02    0.00000     0.00  LINEAR    5.26377E-01   -94.21    0.00000E+00     0.00
  -65.00   360.00       0.58 -999.99    0.58    0.00000     0.00  LINEAR    5.00115E-01   -94.19    0.00000E+00     0.00
  -60.00   360.00       0.03 -999.99    0.03    0.00000     0.00  LINEAR    4.69613E-01   -94.17    0.00000E+00     0.00
  -55.00   360.00      -0.62 -999.99   -0.62    0.00000     0.00  LINEAR    4.35651E-01   -94.15    0.00000E+00     0.00
  -50.00   360.00      -1.38 -999.99   -1.38    0.00000     0.00  LINEAR    3.99013E-01   -94.13    0.00000E+00     0.00
  -45.00   360.00      -2.27 -999.99   -2.27    0.00000     0.00  LINEAR    3.60443E-01   -94.11    0.00000E+00     0.00
  -40.00   360.00      -3.28 -999.99   -3.28    0.00000     0.00  LINEAR    3.20612E-01   -94.09    0.00000E+00     0.00
  -35.00   360.00      -4.46 -999.99   -4.46    0.00000     0.00  LINEAR    2.80088E-01   -94.06    0.00000E+00     0.00
  -30.00   360.00      -5.82 -999.99   -5.82    0.00000     0.00  LINEAR    2.39320E-01   -94.04    0.00000E+00     0.00
  -25.00   360.00      -7.44 -999.99   -7.44    0.00000     0.00  LINEAR    1.98635E-01   -94.02    0.00000E+00     0.00
  -20.00   360.00      -9.42 -999.99   -9.42    0.00000     0.00  LINEAR    1.58236E-01   -94.00    0.00000E+00     0.00
  -15.00   360.00     -11.95 -999.99  -11.95    0.00000     0.00  LINEAR    1.18213E-01   -93.99    0.00000E+00     0.00
  -10.00   360.00     -15.50 -999.99  -15.50    0.00000     0.00  LINEAR    7.85618E-02   -93.98    0.00000E+00     0.00
   -5.00   360.00     -21.54 -999.99  -21.54    0.00000     0.00  LINEAR    3.92015E-02   -93.97    0.00000E+00     0.00
    0.00   360.00    -999.99 -999.99 -999.99    0.00000     0.00            0.00000E+00     0.00    0.00000E+00     0.00


   AVERAGE POWER GAIN= 5.81729E-01       SOLID ANGLE USED IN AVERAGING=( 4.0000)*PI STERADIANS.








 ***** DATA CARD NO. 26   EN   0    37    73  1003 -1.80000E+02  0.00000E+00  5.00000E+00  5.00000E+00  0.00000E+00  0.00000E+00

 RUN TIME =     0.328
