1



                                 *********************************************

                                    NUMERICAL ELECTROMAGNETICS CODE (NEC-2D)

                                 *********************************************




                                     - - - - COMMENTS - - - -


                          Example 2 :	Loaded dipole in free space                                    
                          		See GetStarted.txt                                                       
                                                                                                     
                                                                                                     
                                                                                                     
                                                                                                     
                                                                                                     




                                 - - - STRUCTURE SPECIFICATION - - -

                                     COORDINATES MUST BE INPUT IN
                                     METERS OR BE SCALED TO METERS
                                     BEFORE STRUCTURE INPUT IS ENDED


  WIRE                                                                               NO. OF    FIRST  LAST     TAG
  NO.        X1         Y1         Z1          X2         Y2         Z2      RADIUS   SEG.     SEG.   SEG.     NO.
     1    0.00000    0.00000   -4.99667     0.00000    0.00000    4.99667    0.00005     41        1    41       1

   TOTAL SEGMENTS USED=   41     NO. SEG. IN A SYMMETRIC CELL=   41     SYMMETRY FLAG=  0


         - MULTIPLE WIRE JUNCTIONS -
 JUNCTION    SEGMENTS  (- FOR END 1, + FOR END 2)
  NONE




                                 - - - - SEGMENTATION DATA - - - -

                                        COORDINATES IN METERS

                         I+ AND I- INDICATE THE SEGMENTS BEFORE AND AFTER I


  SEG.   COORDINATES OF SEG. CENTER     SEG.     ORIENTATION ANGLES    WIRE    CONNECTION DATA   TAG
  NO.       X         Y         Z       LENGTH     ALPHA     BETA      RADIUS    I-   I    I+    NO.
     1   0.00000   0.00000  -4.87480   0.24374   90.00000   0.00000   0.00005     0    1    2      1
     2   0.00000   0.00000  -4.63106   0.24374   90.00000   0.00000   0.00005     1    2    3      1
     3   0.00000   0.00000  -4.38732   0.24374   90.00000   0.00000   0.00005     2    3    4      1
     4   0.00000   0.00000  -4.14358   0.24374   90.00000   0.00000   0.00005     3    4    5      1
     5   0.00000   0.00000  -3.89984   0.24374   90.00000   0.00000   0.00005     4    5    6      1
     6   0.00000   0.00000  -3.65610   0.24374   90.00000   0.00000   0.00005     5    6    7      1
     7   0.00000   0.00000  -3.41236   0.24374   90.00000   0.00000   0.00005     6    7    8      1
     8   0.00000   0.00000  -3.16862   0.24374   90.00000   0.00000   0.00005     7    8    9      1
     9   0.00000   0.00000  -2.92488   0.24374   90.00000   0.00000   0.00005     8    9   10      1
    10   0.00000   0.00000  -2.68114   0.24374   90.00000   0.00000   0.00005     9   10   11      1
    11   0.00000   0.00000  -2.43740   0.24374   90.00000   0.00000   0.00005    10   11   12      1
    12   0.00000   0.00000  -2.19366   0.24374   90.00000   0.00000   0.00005    11   12   13      1
    13   0.00000   0.00000  -1.94992   0.24374   90.00000   0.00000   0.00005    12   13   14      1
    14   0.00000   0.00000  -1.70618   0.24374   90.00000   0.00000   0.00005    13   14   15      1
    15   0.00000   0.00000  -1.46244   0.24374   90.00000   0.00000   0.00005    14   15   16      1
    16   0.00000   0.00000  -1.21870   0.24374   90.00000   0.00000   0.00005    15   16   17      1
    17   0.00000   0.00000  -0.97496   0.24374   90.00000   0.00000   0.00005    16   17   18      1
    18   0.00000   0.00000  -0.73122   0.24374   90.00000   0.00000   0.00005    17   18   19      1
    19   0.00000   0.00000  -0.48748   0.24374   90.00000   0.00000   0.00005    18   19   20      1
    20   0.00000   0.00000  -0.24374   0.24374   90.00000   0.00000   0.00005    19   20   21      1
    21   0.00000   0.00000   0.00000   0.24374   90.00000   0.00000   0.00005    20   21   22      1
    22   0.00000   0.00000   0.24374   0.24374   90.00000   0.00000   0.00005    21   22   23      1
    23   0.00000   0.00000   0.48748   0.24374   90.00000   0.00000   0.00005    22   23   24      1
    24   0.00000   0.00000   0.73122   0.24374   90.00000   0.00000   0.00005    23   24   25      1
    25   0.00000   0.00000   0.97496   0.24374   90.00000   0.00000   0.00005    24   25   26      1
    26   0.00000   0.00000   1.21870   0.24374   90.00000   0.00000   0.00005    25   26   27      1
    27   0.00000   0.00000   1.46244   0.24374   90.00000   0.00000   0.00005    26   27   28      1
    28   0.00000   0.00000   1.70618   0.24374   90.00000   0.00000   0.00005    27   28   29      1
    29   0.00000   0.00000   1.94992   0.24374   90.00000   0.00000   0.00005    28   29   30      1
    30   0.00000   0.00000   2.19366   0.24374   90.00000   0.00000   0.00005    29   30   31      1
    31   0.00000   0.00000   2.43740   0.24374   90.00000   0.00000   0.00005    30   31   32      1
    32   0.00000   0.00000   2.68114   0.24374   90.00000   0.00000   0.00005    31   32   33      1
    33   0.00000   0.00000   2.92488   0.24374   90.00000   0.00000   0.00005    32   33   34      1
    34   0.00000   0.00000   3.16862   0.24374   90.00000   0.00000   0.00005    33   34   35      1
    35   0.00000   0.00000   3.41236   0.24374   90.00000   0.00000   0.00005    34   35   36      1
    36   0.00000   0.00000   3.65610   0.24374   90.00000   0.00000   0.00005    35   36   37      1
    37   0.00000   0.00000   3.89984   0.24374   90.00000   0.00000   0.00005    36   37   38      1
    38   0.00000   0.00000   4.14358   0.24374   90.00000   0.00000   0.00005    37   38   39      1
    39   0.00000   0.00000   4.38732   0.24374   90.00000   0.00000   0.00005    38   39   40      1
    40   0.00000   0.00000   4.63106   0.24374   90.00000   0.00000   0.00005    39   40   41      1
    41   0.00000   0.00000   4.87480   0.24374   90.00000   0.00000   0.00005    40   41    0      1






 ***** DATA CARD NO.  1   LD   5     1     1    41  5.80000E+07  0.00000E+00  0.00000E+00  0.00000E+00  0.00000E+00  0.00000E+00
 ***** DATA CARD NO.  2   GN  -1     0     0     0  0.00000E+00  0.00000E+00  0.00000E+00  0.00000E+00  0.00000E+00  0.00000E+00
 ***** DATA CARD NO.  3   EK   0     0     0     0  0.00000E+00  0.00000E+00  0.00000E+00  0.00000E+00  0.00000E+00  0.00000E+00
 ***** DATA CARD NO.  4   EX   0     1    21     0  1.00000E+00  0.00000E+00  0.00000E+00  0.00000E+00  0.00000E+00  0.00000E+00
 ***** DATA CARD NO.  5   FR   0     0     0     0  1.50100E+01  0.00000E+00  0.00000E+00  0.00000E+00  0.00000E+00  0.00000E+00
 ***** DATA CARD NO.  6   RP   0    37    73  1003 -1.80000E+02  0.00000E+00  5.00000E+00  5.00000E+00  0.00000E+00  0.00000E+00




                                 - - - - - - FREQUENCY - - - - - -

                                    FREQUENCY= 1.5010E+01 MHZ
                                    WAVELENGTH= 1.9973E+01 METERS




                    APPROXIMATE INTEGRATION EMPLOYED FOR SEGMENTS MORE THAN   1.000 WAVELENGTHS APART

                    THE EXTENDED THIN WIRE KERNEL WILL BE USED



                               - - - STRUCTURE IMPEDANCE LOADING - - -


       LOCATION          RESISTANCE   INDUCTANCE  CAPACITANCE       IMPEDANCE (OHMS)     CONDUCTIVITY    TYPE
    ITAG FROM THRU          OHMS        HENRYS       FARADS        REAL      IMAGINARY    MHOS/METER

       1    1   41                                                                       5.8000E+07     WIRE  



                                  - - - ANTENNA ENVIRONMENT - - -

                                            FREE SPACE



                                - - - MATRIX TIMING - - -

                        FILL=    0.000 SEC.,  FACTOR=    0.000 SEC.



                                          - - - ANTENNA INPUT PARAMETERS - - -

   TAG   SEG.    VOLTAGE (VOLTS)         CURRENT (AMPS)         IMPEDANCE (OHMS)        ADMITTANCE (MHOS)      POWER
   NO.   NO.    REAL        IMAG.       REAL        IMAG.       REAL        IMAG.       REAL        IMAG.     (WATTS)
     1    21 1.00000E+00 0.00000E+00 7.36141E-03-4.57376E-03 9.80089E+01 6.08944E+01 7.36141E-03-4.57376E-03 3.68071E-03



                             - - - CURRENTS AND LOCATION - - -

                                 DISTANCES IN WAVELENGTHS


  SEG.  TAG    COORD. OF SEG. CENTER     SEG.            - - - CURRENT (AMPS) - - -
  NO.   NO.     X        Y        Z      LENGTH     REAL        IMAG.       MAG.        PHASE
     1    1   0.0000   0.0000  -0.2441  0.01220   3.2780E-04 -2.3496E-04  4.0331E-04  -35.633
     2    1   0.0000   0.0000  -0.2319  0.01220   9.3211E-04 -6.6556E-04  1.1453E-03  -35.528
     3    1   0.0000   0.0000  -0.2197  0.01220   1.5069E-03 -1.0716E-03  1.8491E-03  -35.418
     4    1   0.0000   0.0000  -0.2075  0.01220   2.0631E-03 -1.4610E-03  2.5281E-03  -35.304
     5    1   0.0000   0.0000  -0.1953  0.01220   2.6016E-03 -1.8341E-03  3.1832E-03  -35.184
     6    1   0.0000   0.0000  -0.1830  0.01220   3.1213E-03 -2.1903E-03  3.8131E-03  -35.058
     7    1   0.0000   0.0000  -0.1708  0.01220   3.6204E-03 -2.5280E-03  4.4157E-03  -34.925
     8    1   0.0000   0.0000  -0.1586  0.01220   4.0969E-03 -2.8460E-03  4.9884E-03  -34.786
     9    1   0.0000   0.0000  -0.1464  0.01220   4.5486E-03 -3.1425E-03  5.5286E-03  -34.640
    10    1   0.0000   0.0000  -0.1342  0.01220   4.9734E-03 -3.4162E-03  6.0336E-03  -34.485
    11    1   0.0000   0.0000  -0.1220  0.01220   5.3691E-03 -3.6654E-03  6.5010E-03  -34.321
    12    1   0.0000   0.0000  -0.1098  0.01220   5.7337E-03 -3.8889E-03  6.9281E-03  -34.147
    13    1   0.0000   0.0000  -0.0976  0.01220   6.0654E-03 -4.0852E-03  7.3129E-03  -33.961
    14    1   0.0000   0.0000  -0.0854  0.01220   6.3624E-03 -4.2533E-03  7.6531E-03  -33.763
    15    1   0.0000   0.0000  -0.0732  0.01220   6.6231E-03 -4.3921E-03  7.9471E-03  -33.551
    16    1   0.0000   0.0000  -0.0610  0.01220   6.8461E-03 -4.5007E-03  8.1930E-03  -33.321
    17    1   0.0000   0.0000  -0.0488  0.01220   7.0302E-03 -4.5781E-03  8.3895E-03  -33.072
    18    1   0.0000   0.0000  -0.0366  0.01220   7.1745E-03 -4.6237E-03  8.5354E-03  -32.800
    19    1   0.0000   0.0000  -0.0244  0.01220   7.2782E-03 -4.6364E-03  8.6295E-03  -32.498
    20    1   0.0000   0.0000  -0.0122  0.01220   7.3406E-03 -4.6145E-03  8.6705E-03  -32.155
    21    1   0.0000   0.0000   0.0000  0.01220   7.3614E-03 -4.5738E-03  8.6666E-03  -31.853
    22    1   0.0000   0.0000   0.0122  0.01220   7.3406E-03 -4.6145E-03  8.6705E-03  -32.155
    23    1   0.0000   0.0000   0.0244  0.01220   7.2782E-03 -4.6364E-03  8.6295E-03  -32.498
    24    1   0.0000   0.0000   0.0366  0.01220   7.1745E-03 -4.6237E-03  8.5354E-03  -32.800
    25    1   0.0000   0.0000   0.0488  0.01220   7.0302E-03 -4.5781E-03  8.3895E-03  -33.072
    26    1   0.0000   0.0000   0.0610  0.01220   6.8461E-03 -4.5007E-03  8.1930E-03  -33.321
    27    1   0.0000   0.0000   0.0732  0.01220   6.6231E-03 -4.3921E-03  7.9471E-03  -33.551
    28    1   0.0000   0.0000   0.0854  0.01220   6.3624E-03 -4.2533E-03  7.6531E-03  -33.763
    29    1   0.0000   0.0000   0.0976  0.01220   6.0654E-03 -4.0852E-03  7.3129E-03  -33.961
    30    1   0.0000   0.0000   0.1098  0.01220   5.7337E-03 -3.8889E-03  6.9281E-03  -34.147
    31    1   0.0000   0.0000   0.1220  0.01220   5.3691E-03 -3.6654E-03  6.5010E-03  -34.321
    32    1   0.0000   0.0000   0.1342  0.01220   4.9734E-03 -3.4162E-03  6.0336E-03  -34.485
    33    1   0.0000   0.0000   0.1464  0.01220   4.5486E-03 -3.1425E-03  5.5286E-03  -34.640
    34    1   0.0000   0.0000   0.1586  0.01220   4.0969E-03 -2.8460E-03  4.9884E-03  -34.786
    35    1   0.0000   0.0000   0.1708  0.01220   3.6204E-03 -2.5280E-03  4.4157E-03  -34.925
    36    1   0.0000   0.0000   0.1830  0.01220   3.1213E-03 -2.1903E-03  3.8131E-03  -35.058
    37    1   0.0000   0.0000   0.1953  0.01220   2.6016E-03 -1.8341E-03  3.1832E-03  -35.184
    38    1   0.0000   0.0000   0.2075  0.01220   2.0631E-03 -1.4610E-03  2.5281E-03  -35.304
    39    1   0.0000   0.0000   0.2197  0.01220   1.5069E-03 -1.0716E-03  1.8491E-03  -35.418
    40    1   0.0000   0.0000   0.2319  0.01220   9.3211E-04 -6.6556E-04  1.1453E-03  -35.528
    41    1   0.0000   0.0000   0.2441  0.01220   3.2780E-04 -2.3496E-04  4.0331E-04  -35.633



                                        - - - POWER BUDGET - - -

                                           INPUT POWER   = 3.6807E-03 WATTS
                                           RADIATED POWER= 2.9295E-03 WATTS
                                           STRUCTURE LOSS= 7.5122E-04 WATTS
                                           NETWORK LOSS  = 0.0000E+00 WATTS
                                           EFFICIENCY    =  79.59 PERCENT



                                                - - - RADIATION PATTERNS - - -

  - - ANGLES - -           - POWER GAINS -       - - - POLARIZATION - - -    - - - E(THETA) - - -    - - - E(PHI) - - -
  THETA     PHI        VERT.   HOR.    TOTAL      AXIAL     TILT   SENSE     MAGNITUDE    PHASE      MAGNITUDE    PHASE 
 DEGREES  DEGREES       DB      DB      DB        RATIO     DEG.              VOLTS/M    DEGREES      VOLTS/M    DEGREES
 -180.00     0.00    -999.99 -999.99 -999.99    0.00000     0.00            4.27358E-12    56.56    0.00000E+00     0.00
 -175.00     0.00     -22.18 -999.99  -22.18    0.00000     0.00  LINEAR    3.65639E-02  -123.45    0.00000E+00     0.00
 -170.00     0.00     -16.14 -999.99  -16.14    0.00000     0.00  LINEAR    7.32761E-02  -123.45    0.00000E+00     0.00
 -165.00     0.00     -12.59 -999.99  -12.59    0.00000     0.00  LINEAR    1.10260E-01  -123.46    0.00000E+00     0.00
 -160.00     0.00     -10.06 -999.99  -10.06    0.00000     0.00  LINEAR    1.47592E-01  -123.48    0.00000E+00     0.00
 -155.00     0.00      -8.08 -999.99   -8.08    0.00000     0.00  LINEAR    1.85277E-01  -123.50    0.00000E+00     0.00
 -150.00     0.00      -6.46 -999.99   -6.46    0.00000     0.00  LINEAR    2.23229E-01  -123.52    0.00000E+00     0.00
 -145.00     0.00      -5.10 -999.99   -5.10    0.00000     0.00  LINEAR    2.61259E-01  -123.54    0.00000E+00     0.00
 -140.00     0.00      -3.92 -999.99   -3.92    0.00000     0.00  LINEAR    2.99064E-01  -123.56    0.00000E+00     0.00
 -135.00     0.00      -2.91 -999.99   -2.91    0.00000     0.00  LINEAR    3.36223E-01  -123.59    0.00000E+00     0.00
 -130.00     0.00      -2.02 -999.99   -2.02    0.00000     0.00  LINEAR    3.72207E-01  -123.61    0.00000E+00     0.00
 -125.00     0.00      -1.26 -999.99   -1.26    0.00000     0.00  LINEAR    4.06389E-01  -123.63    0.00000E+00     0.00
 -120.00     0.00      -0.61 -999.99   -0.61    0.00000     0.00  LINEAR    4.38074E-01  -123.65    0.00000E+00     0.00
 -115.00     0.00      -0.06 -999.99   -0.06    0.00000     0.00  LINEAR    4.66532E-01  -123.67    0.00000E+00     0.00
 -110.00     0.00       0.38 -999.99    0.38    0.00000     0.00  LINEAR    4.91035E-01  -123.68    0.00000E+00     0.00
 -105.00     0.00       0.73 -999.99    0.73    0.00000     0.00  LINEAR    5.10905E-01  -123.69    0.00000E+00     0.00
 -100.00     0.00       0.97 -999.99    0.97    0.00000     0.00  LINEAR    5.25556E-01  -123.70    0.00000E+00     0.00
  -95.00     0.00       1.12 -999.99    1.12    0.00000     0.00  LINEAR    5.34537E-01  -123.71    0.00000E+00     0.00
  -90.00     0.00       1.17 -999.99    1.17    0.00000     0.00  LINEAR    5.37563E-01  -123.71    0.00000E+00     0.00
  -85.00     0.00       1.12 -999.99    1.12    0.00000     0.00  LINEAR    5.34537E-01  -123.71    0.00000E+00     0.00
  -80.00     0.00       0.97 -999.99    0.97    0.00000     0.00  LINEAR    5.25556E-01  -123.70    0.00000E+00     0.00
  -75.00     0.00       0.73 -999.99    0.73    0.00000     0.00  LINEAR    5.10905E-01  -123.69    0.00000E+00     0.00
  -70.00     0.00       0.38 -999.99    0.38    0.00000     0.00  LINEAR    4.91035E-01  -123.68    0.00000E+00     0.00
  -65.00     0.00      -0.06 -999.99   -0.06    0.00000     0.00  LINEAR    4.66532E-01  -123.67    0.00000E+00     0.00
  -60.00     0.00      -0.61 -999.99   -0.61    0.00000     0.00  LINEAR    4.38074E-01  -123.65    0.00000E+00     0.00
  -55.00     0.00      -1.26 -999.99   -1.26    0.00000     0.00  LINEAR    4.06389E-01  -123.63    0.00000E+00     0.00
  -50.00     0.00      -2.02 -999.99   -2.02    0.00000     0.00  LINEAR    3.72207E-01  -123.61    0.00000E+00     0.00
  -45.00     0.00      -2.91 -999.99   -2.91    0.00000     0.00  LINEAR    3.36223E-01  -123.59    0.00000E+00     0.00
  -40.00     0.00      -3.92 -999.99   -3.92    0.00000     0.00  LINEAR    2.99064E-01  -123.56    0.00000E+00     0.00
  -35.00     0.00      -5.10 -999.99   -5.10    0.00000     0.00  LINEAR    2.61259E-01  -123.54    0.00000E+00     0.00
  -30.00     0.00      -6.46 -999.99   -6.46    0.00000     0.00  LINEAR    2.23229E-01  -123.52    0.00000E+00     0.00
  -25.00     0.00      -8.08 -999.99   -8.08    0.00000     0.00  LINEAR    1.85277E-01  -123.50    0.00000E+00     0.00
  -20.00     0.00     -10.06 -999.99  -10.06    0.00000     0.00  LINEAR    1.47592E-01  -123.48    0.00000E+00     0.00
  -15.00     0.00     -12.59 -999.99  -12.59    0.00000     0.00  LINEAR    1.10260E-01  -123.46    0.00000E+00     0.00
  -10.00     0.00     -16.14 -999.99  -16.14    0.00000     0.00  LINEAR    7.32761E-02  -123.45    0.00000E+00     0.00
   -5.00     0.00     -22.18 -999.99  -22.18    0.00000     0.00  LINEAR    3.65639E-02  -123.45    0.00000E+00     0.00
    0.00     0.00    -999.99 -999.99 -999.99    0.00000     0.00            0.00000E+00     0.00    0.00000E+00     0.00
 -180.00     5.00    -999.99 -999.99 -999.99    0.00000     0.00            4.27358E-12    56.56    0.00000E+00     0.00
 -175.00     5.00     -22.18 -999.99  -22.18    0.00000     0.00  LINEAR    3.65639E-02  -123.45    0.00000E+00     0.00
 -170.00     5.00     -16.14 -999.99  -16.14    0.00000     0.00  LINEAR    7.32761E-02  -123.45    0.00000E+00     0.00
 -165.00     5.00     -12.59 -999.99  -12.59    0.00000     0.00  LINEAR    1.10260E-01  -123.46    0.00000E+00     0.00
 -160.00     5.00     -10.06 -999.99  -10.06    0.00000     0.00  LINEAR    1.47592E-01  -123.48    0.00000E+00     0.00
 -155.00     5.00      -8.08 -999.99   -8.08    0.00000     0.00  LINEAR    1.85277E-01  -123.50    0.00000E+00     0.00
 -150.00     5.00      -6.46 -999.99   -6.46    0.00000     0.00  LINEAR    2.23229E-01  -123.52    0.00000E+00     0.00
 -145.00     5.00      -5.10 -999.99   -5.10    0.00000     0.00  LINEAR    2.61259E-01  -123.54    0.00000E+00     0.00
 -140.00     5.00      -3.92 -999.99   -3.92    0.00000     0.00  LINEAR    2.99064E-01  -123.56    0.00000E+00     0.00
 -135.00     5.00      -2.91 -999.99   -2.91    0.00000     0.00  LINEAR    3.36223E-01  -123.59    0.00000E+00     0.00
 -130.00     5.00      -2.02 -999.99   -2.02    0.00000     0.00  LINEAR    3.72207E-01  -123.61    0.00000E+00     0.00
 -125.00     5.00      -1.26 -999.99   -1.26    0.00000     0.00  LINEAR    4.06389E-01  -123.63    0.00000E+00     0.00
 -120.00     5.00      -0.61 -999.99   -0.61    0.00000     0.00  LINEAR    4.38074E-01  -123.65    0.00000E+00     0.00
 -115.00     5.00      -0.06 -999.99   -0.06    0.00000     0.00  LINEAR    4.66532E-01  -123.67    0.00000E+00     0.00
 -110.00     5.00       0.38 -999.99    0.38    0.00000     0.00  LINEAR    4.91035E-01  -123.68    0.00000E+00     0.00
 -105.00     5.00       0.73 -999.99    0.73    0.00000     0.00  LINEAR    5.10905E-01  -123.69    0.00000E+00     0.00
 -100.00     5.00       0.97 -999.99    0.97    0.00000     0.00  LINEAR    5.25556E-01  -123.70    0.00000E+00     0.00
  -95.00     5.00       1.12 -999.99    1.12    0.00000     0.00  LINEAR    5.34537E-01  -123.71    0.00000E+00     0.00
  -90.00     5.00       1.17 -999.99    1.17    0.00000     0.00  LINEAR    5.37563E-01  -123.71    0.00000E+00     0.00
  -85.00     5.00       1.12 -999.99    1.12    0.00000     0.00  LINEAR    5.34537E-01  -123.71    0.00000E+00     0.00
  -80.00     5.00       0.97 -999.99    0.97    0.00000     0.00  LINEAR    5.25556E-01  -123.70    0.00000E+00     0.00
  -75.00     5.00       0.73 -999.99    0.73    0.00000     0.00  LINEAR    5.10905E-01  -123.69    0.00000E+00     0.00
  -70.00     5.00       0.38 -999.99    0.38    0.00000     0.00  LINEAR    4.91035E-01  -123.68    0.00000E+00     0.00
  -65.00     5.00      -0.06 -999.99   -0.06    0.00000     0.00  LINEAR    4.66532E-01  -123.67    0.00000E+00     0.00
  -60.00     5.00      -0.61 -999.99   -0.61    0.00000     0.00  LINEAR    4.38074E-01  -123.65    0.00000E+00     0.00
  -55.00     5.00      -1.26 -999.99   -1.26    0.00000     0.00  LINEAR    4.06389E-01  -123.63    0.00000E+00     0.00
  -50.00     5.00      -2.02 -999.99   -2.02    0.00000     0.00  LINEAR    3.72207E-01  -123.61    0.00000E+00     0.00
  -45.00     5.00      -2.91 -999.99   -2.91    0.00000     0.00  LINEAR    3.36223E-01  -123.59    0.00000E+00     0.00
  -40.00     5.00      -3.92 -999.99   -3.92    0.00000     0.00  LINEAR    2.99064E-01  -123.56    0.00000E+00     0.00
  -35.00     5.00      -5.10 -999.99   -5.10    0.00000     0.00  LINEAR    2.61259E-01  -123.54    0.00000E+00     0.00
  -30.00     5.00      -6.46 -999.99   -6.46    0.00000     0.00  LINEAR    2.23229E-01  -123.52    0.00000E+00     0.00
  -25.00     5.00      -8.08 -999.99   -8.08    0.00000     0.00  LINEAR    1.85277E-01  -123.50    0.00000E+00     0.00
  -20.00     5.00     -10.06 -999.99  -10.06    0.00000     0.00  LINEAR    1.47592E-01  -123.48    0.00000E+00     0.00
  -15.00     5.00     -12.59 -999.99  -12.59    0.00000     0.00  LINEAR    1.10260E-01  -123.46    0.00000E+00     0.00
  -10.00     5.00     -16.14 -999.99  -16.14    0.00000     0.00  LINEAR    7.32761E-02  -123.45    0.00000E+00     0.00
   -5.00     5.00     -22.18 -999.99  -22.18    0.00000     0.00  LINEAR    3.65639E-02  -123.45    0.00000E+00     0.00
    0.00     5.00    -999.99 -999.99 -999.99    0.00000     0.00            0.00000E+00     0.00    0.00000E+00     0.00
 -180.00    10.00    -999.99 -999.99 -999.99    0.00000     0.00            4.27358E-12    56.56    0.00000E+00     0.00
 -175.00    10.00     -22.18 -999.99  -22.18    0.00000     0.00  LINEAR    3.65639E-02  -123.45    0.00000E+00     0.00
 -170.00    10.00     -16.14 -999.99  -16.14    0.00000     0.00  LINEAR    7.32761E-02  -123.45    0.00000E+00     0.00
 -165.00    10.00     -12.59 -999.99  -12.59    0.00000     0.00  LINEAR    1.10260E-01  -123.46    0.00000E+00     0.00
 -160.00    10.00     -10.06 -999.99  -10.06    0.00000     0.00  LINEAR    1.47592E-01  -123.48    0.00000E+00     0.00
 -155.00    10.00      -8.08 -999.99   -8.08    0.00000     0.00  LINEAR    1.85277E-01  -123.50    0.00000E+00     0.00
 -150.00    10.00      -6.46 -999.99   -6.46    0.00000     0.00  LINEAR    2.23229E-01  -123.52    0.00000E+00     0.00
 -145.00    10.00      -5.10 -999.99   -5.10    0.00000     0.00  LINEAR    2.61259E-01  -123.54    0.00000E+00     0.00
 -140.00    10.00      -3.92 -999.99   -3.92    0.00000     0.00  LINEAR    2.99064E-01  -123.56    0.00000E+00     0.00
 -135.00    10.00      -2.91 -999.99   -2.91    0.00000     0.00  LINEAR    3.36223E-01  -123.59    0.00000E+00     0.00
 -130.00    10.00      -2.02 -999.99   -2.02    0.00000     0.00  LINEAR    3.72207E-01  -123.61    0.00000E+00     0.00
 -125.00    10.00      -1.26 -999.99   -1.26    0.00000     0.00  LINEAR    4.06389E-01  -123.63    0.00000E+00     0.00
 -120.00    10.00      -0.61 -999.99   -0.61    0.00000     0.00  LINEAR    4.38074E-01  -123.65    0.00000E+00     0.00
 -115.00    10.00      -0.06 -999.99   -0.06    0.00000     0.00  LINEAR    4.66532E-01  -123.67    0.00000E+00     0.00
 -110.00    10.00       0.38 -999.99    0.38    0.00000     0.00  LINEAR    4.91035E-01  -123.68    0.00000E+00     0.00
 -105.00    10.00       0.73 -999.99    0.73    0.00000     0.00  LINEAR    5.10905E-01  -123.69    0.00000E+00     0.00
 -100.00    10.00       0.97 -999.99    0.97    0.00000     0.00  LINEAR    5.25556E-01  -123.70    0.00000E+00     0.00
  -95.00    10.00       1.12 -999.99    1.12    0.00000     0.00  LINEAR    5.34537E-01  -123.71    0.00000E+00     0.00
  -90.00    10.00       1.17 -999.99    1.17    0.00000     0.00  LINEAR    5.37563E-01  -123.71    0.00000E+00     0.00
  -85.00    10.00       1.12 -999.99    1.12    0.00000     0.00  LINEAR    5.34537E-01  -123.71    0.00000E+00     0.00
  -80.00    10.00       0.97 -999.99    0.97    0.00000     0.00  LINEAR    5.25556E-01  -123.70    0.00000E+00     0.00
  -75.00    10.00       0.73 -999.99    0.73    0.00000     0.00  LINEAR    5.10905E-01  -123.69    0.00000E+00     0.00
  -70.00    10.00       0.38 -999.99    0.38    0.00000     0.00  LINEAR    4.91035E-01  -123.68    0.00000E+00     0.00
  -65.00    10.00      -0.06 -999.99   -0.06    0.00000     0.00  LINEAR    4.66532E-01  -123.67    0.00000E+00     0.00
  -60.00    10.00      -0.61 -999.99   -0.61    0.00000     0.00  LINEAR    4.38074E-01  -123.65    0.00000E+00     0.00
  -55.00    10.00      -1.26 -999.99   -1.26    0.00000     0.00  LINEAR    4.06389E-01  -123.63    0.00000E+00     0.00
  -50.00    10.00      -2.02 -999.99   -2.02    0.00000     0.00  LINEAR    3.72207E-01  -123.61    0.00000E+00     0.00
  -45.00    10.00      -2.91 -999.99   -2.91    0.00000     0.00  LINEAR    3.36223E-01  -123.59    0.00000E+00     0.00
  -40.00    10.00      -3.92 -999.99   -3.92    0.00000     0.00  LINEAR    2.99064E-01  -123.56    0.00000E+00     0.00
  -35.00    10.00      -5.10 -999.99   -5.10    0.00000     0.00  LINEAR    2.61259E-01  -123.54    0.00000E+00     0.00
  -30.00    10.00      -6.46 -999.99   -6.46    0.00000     0.00  LINEAR    2.23229E-01  -123.52    0.00000E+00     0.00
  -25.00    10.00      -8.08 -999.99   -8.08    0.00000     0.00  LINEAR    1.85277E-01  -123.50    0.00000E+00     0.00
  -20.00    10.00     -10.06 -999.99  -10.06    0.00000     0.00  LINEAR    1.47592E-01  -123.48    0.00000E+00     0.00
  -15.00    10.00     -12.59 -999.99  -12.59    0.00000     0.00  LINEAR    1.10260E-01  -123.46    0.00000E+00     0.00
  -10.00    10.00     -16.14 -999.99  -16.14    0.00000     0.00  LINEAR    7.32761E-02  -123.45    0.00000E+00     0.00
   -5.00    10.00     -22.18 -999.99  -22.18    0.00000     0.00  LINEAR    3.65639E-02  -123.45    0.00000E+00     0.00
    0.00    10.00    -999.99 -999.99 -999.99    0.00000     0.00            0.00000E+00     0.00    0.00000E+00     0.00
 -180.00    15.00    -999.99 -999.99 -999.99    0.00000     0.00            4.27358E-12    56.56    0.00000E+00     0.00
 -175.00    15.00     -22.18 -999.99  -22.18    0.00000     0.00  LINEAR    3.65639E-02  -123.45    0.00000E+00     0.00
 -170.00    15.00     -16.14 -999.99  -16.14    0.00000     0.00  LINEAR    7.32761E-02  -123.45    0.00000E+00     0.00
 -165.00    15.00     -12.59 -999.99  -12.59    0.00000     0.00  LINEAR    1.10260E-01  -123.46    0.00000E+00     0.00
 -160.00    15.00     -10.06 -999.99  -10.06    0.00000     0.00  LINEAR    1.47592E-01  -123.48    0.00000E+00     0.00
 -155.00    15.00      -8.08 -999.99   -8.08    0.00000     0.00  LINEAR    1.85277E-01  -123.50    0.00000E+00     0.00
 -150.00    15.00      -6.46 -999.99   -6.46    0.00000     0.00  LINEAR    2.23229E-01  -123.52    0.00000E+00     0.00
 -145.00    15.00      -5.10 -999.99   -5.10    0.00000     0.00  LINEAR    2.61259E-01  -123.54    0.00000E+00     0.00
 -140.00    15.00      -3.92 -999.99   -3.92    0.00000     0.00  LINEAR    2.99064E-01  -123.56    0.00000E+00     0.00
 -135.00    15.00      -2.91 -999.99   -2.91    0.00000     0.00  LINEAR    3.36223E-01  -123.59    0.00000E+00     0.00
 -130.00    15.00      -2.02 -999.99   -2.02    0.00000     0.00  LINEAR    3.72207E-01  -123.61    0.00000E+00     0.00
 -125.00    15.00      -1.26 -999.99   -1.26    0.00000     0.00  LINEAR    4.06389E-01  -123.63    0.00000E+00     0.00
 -120.00    15.00      -0.61 -999.99   -0.61    0.00000     0.00  LINEAR    4.38074E-01  -123.65    0.00000E+00     0.00
 -115.00    15.00      -0.06 -999.99   -0.06    0.00000     0.00  LINEAR    4.66532E-01  -123.67    0.00000E+00     0.00
 -110.00    15.00       0.38 -999.99    0.38    0.00000     0.00  LINEAR    4.91035E-01  -123.68    0.00000E+00     0.00
 -105.00    15.00       0.73 -999.99    0.73    0.00000     0.00  LINEAR    5.10905E-01  -123.69    0.00000E+00     0.00
 -100.00    15.00       0.97 -999.99    0.97    0.00000     0.00  LINEAR    5.25556E-01  -123.70    0.00000E+00     0.00
  -95.00    15.00       1.12 -999.99    1.12    0.00000     0.00  LINEAR    5.34537E-01  -123.71    0.00000E+00     0.00
  -90.00    15.00       1.17 -999.99    1.17    0.00000     0.00  LINEAR    5.37563E-01  -123.71    0.00000E+00     0.00
  -85.00    15.00       1.12 -999.99    1.12    0.00000     0.00  LINEAR    5.34537E-01  -123.71    0.00000E+00     0.00
  -80.00    15.00       0.97 -999.99    0.97    0.00000     0.00  LINEAR    5.25556E-01  -123.70    0.00000E+00     0.00
  -75.00    15.00       0.73 -999.99    0.73    0.00000     0.00  LINEAR    5.10905E-01  -123.69    0.00000E+00     0.00
  -70.00    15.00       0.38 -999.99    0.38    0.00000     0.00  LINEAR    4.91035E-01  -123.68    0.00000E+00     0.00
  -65.00    15.00      -0.06 -999.99   -0.06    0.00000     0.00  LINEAR    4.66532E-01  -123.67    0.00000E+00     0.00
  -60.00    15.00      -0.61 -999.99   -0.61    0.00000     0.00  LINEAR    4.38074E-01  -123.65    0.00000E+00     0.00
  -55.00    15.00      -1.26 -999.99   -1.26    0.00000     0.00  LINEAR    4.06389E-01  -123.63    0.00000E+00     0.00
  -50.00    15.00      -2.02 -999.99   -2.02    0.00000     0.00  LINEAR    3.72207E-01  -123.61    0.00000E+00     0.00
  -45.00    15.00      -2.91 -999.99   -2.91    0.00000     0.00  LINEAR    3.36223E-01  -123.59    0.00000E+00     0.00
  -40.00    15.00      -3.92 -999.99   -3.92    0.00000     0.00  LINEAR    2.99064E-01  -123.56    0.00000E+00     0.00
  -35.00    15.00      -5.10 -999.99   -5.10    0.00000     0.00  LINEAR    2.61259E-01  -123.54    0.00000E+00     0.00
  -30.00    15.00      -6.46 -999.99   -6.46    0.00000     0.00  LINEAR    2.23229E-01  -123.52    0.00000E+00     0.00
  -25.00    15.00      -8.08 -999.99   -8.08    0.00000     0.00  LINEAR    1.85277E-01  -123.50    0.00000E+00     0.00
  -20.00    15.00     -10.06 -999.99  -10.06    0.00000     0.00  LINEAR    1.47592E-01  -123.48    0.00000E+00     0.00
  -15.00    15.00     -12.59 -999.99  -12.59    0.00000     0.00  LINEAR    1.10260E-01  -123.46    0.00000E+00     0.00
  -10.00    15.00     -16.14 -999.99  -16.14    0.00000     0.00  LINEAR    7.32761E-02  -123.45    0.00000E+00     0.00
   -5.00    15.00     -22.18 -999.99  -22.18    0.00000     0.00  LINEAR    3.65639E-02  -123.45    0.00000E+00     0.00
    0.00    15.00    -999.99 -999.99 -999.99    0.00000     0.00            0.00000E+00     0.00    0.00000E+00     0.00
 -180.00    20.00    -999.99 -999.99 -999.99    0.00000     0.00            4.27358E-12    56.56    0.00000E+00     0.00
 -175.00    20.00     -22.18 -999.99  -22.18    0.00000     0.00  LINEAR    3.65639E-02  -123.45    0.00000E+00     0.00
 -170.00    20.00     -16.14 -999.99  -16.14    0.00000     0.00  LINEAR    7.32761E-02  -123.45    0.00000E+00     0.00
 -165.00    20.00     -12.59 -999.99  -12.59    0.00000     0.00  LINEAR    1.10260E-01  -123.46    0.00000E+00     0.00
 -160.00    20.00     -10.06 -999.99  -10.06    0.00000     0.00  LINEAR    1.47592E-01  -123.48    0.00000E+00     0.00
 -155.00    20.00      -8.08 -999.99   -8.08    0.00000     0.00  LINEAR    1.85277E-01  -123.50    0.00000E+00     0.00
 -150.00    20.00      -6.46 -999.99   -6.46    0.00000     0.00  LINEAR    2.23229E-01  -123.52    0.00000E+00     0.00
 -145.00    20.00      -5.10 -999.99   -5.10    0.00000     0.00  LINEAR    2.61259E-01  -123.54    0.00000E+00     0.00
 -140.00    20.00      -3.92 -999.99   -3.92    0.00000     0.00  LINEAR    2.99064E-01  -123.56    0.00000E+00     0.00
 -135.00    20.00      -2.91 -999.99   -2.91    0.00000     0.00  LINEAR    3.36223E-01  -123.59    0.00000E+00     0.00
 -130.00    20.00      -2.02 -999.99   -2.02    0.00000     0.00  LINEAR    3.72207E-01  -123.61    0.00000E+00     0.00
 -125.00    20.00      -1.26 -999.99   -1.26    0.00000     0.00  LINEAR    4.06389E-01  -123.63    0.00000E+00     0.00
 -120.00    20.00      -0.61 -999.99   -0.61    0.00000     0.00  LINEAR    4.38074E-01  -123.65    0.00000E+00     0.00
 -115.00    20.00      -0.06 -999.99   -0.06    0.00000     0.00  LINEAR    4.66532E-01  -123.67    0.00000E+00     0.00
 -110.00    20.00       0.38 -999.99    0.38    0.00000     0.00  LINEAR    4.91035E-01  -123.68    0.00000E+00     0.00
 -105.00    20.00       0.73 -999.99    0.73    0.00000     0.00  LINEAR    5.10905E-01  -123.69    0.00000E+00     0.00
 -100.00    20.00       0.97 -999.99    0.97    0.00000     0.00  LINEAR    5.25556E-01  -123.70    0.00000E+00     0.00
  -95.00    20.00       1.12 -999.99    1.12    0.00000     0.00  LINEAR    5.34537E-01  -123.71    0.00000E+00     0.00
  -90.00    20.00       1.17 -999.99    1.17    0.00000     0.00  LINEAR    5.37563E-01  -123.71    0.00000E+00     0.00
  -85.00    20.00       1.12 -999.99    1.12    0.00000     0.00  LINEAR    5.34537E-01  -123.71    0.00000E+00     0.00
  -80.00    20.00       0.97 -999.99    0.97    0.00000     0.00  LINEAR    5.25556E-01  -123.70    0.00000E+00     0.00
  -75.00    20.00       0.73 -999.99    0.73    0.00000     0.00  LINEAR    5.10905E-01  -123.69    0.00000E+00     0.00
  -70.00    20.00       0.38 -999.99    0.38    0.00000     0.00  LINEAR    4.91035E-01  -123.68    0.00000E+00     0.00
  -65.00    20.00      -0.06 -999.99   -0.06    0.00000     0.00  LINEAR    4.66532E-01  -123.67    0.00000E+00     0.00
  -60.00    20.00      -0.61 -999.99   -0.61    0.00000     0.00  LINEAR    4.38074E-01  -123.65    0.00000E+00     0.00
  -55.00    20.00      -1.26 -999.99   -1.26    0.00000     0.00  LINEAR    4.06389E-01  -123.63    0.00000E+00     0.00
  -50.00    20.00      -2.02 -999.99   -2.02    0.00000     0.00  LINEAR    3.72207E-01  -123.61    0.00000E+00     0.00
  -45.00    20.00      -2.91 -999.99   -2.91    0.00000     0.00  LINEAR    3.36223E-01  -123.59    0.00000E+00     0.00
  -40.00    20.00      -3.92 -999.99   -3.92    0.00000     0.00  LINEAR    2.99064E-01  -123.56    0.00000E+00     0.00
  -35.00    20.00      -5.10 -999.99   -5.10    0.00000     0.00  LINEAR    2.61259E-01  -123.54    0.00000E+00     0.00
  -30.00    20.00      -6.46 -999.99   -6.46    0.00000     0.00  LINEAR    2.23229E-01  -123.52    0.00000E+00     0.00
  -25.00    20.00      -8.08 -999.99   -8.08    0.00000     0.00  LINEAR    1.85277E-01  -123.50    0.00000E+00     0.00
  -20.00    20.00     -10.06 -999.99  -10.06    0.00000     0.00  LINEAR    1.47592E-01  -123.48    0.00000E+00     0.00
  -15.00    20.00     -12.59 -999.99  -12.59    0.00000     0.00  LINEAR    1.10260E-01  -123.46    0.00000E+00     0.00
  -10.00    20.00     -16.14 -999.99  -16.14    0.00000     0.00  LINEAR    7.32761E-02  -123.45    0.00000E+00     0.00
   -5.00    20.00     -22.18 -999.99  -22.18    0.00000     0.00  LINEAR    3.65639E-02  -123.45    0.00000E+00     0.00
    0.00    20.00    -999.99 -999.99 -999.99    0.00000     0.00            0.00000E+00     0.00    0.00000E+00     0.00
 -180.00    25.00    -999.99 -999.99 -999.99    0.00000     0.00            4.27358E-12    56.56    0.00000E+00     0.00
 -175.00    25.00     -22.18 -999.99  -22.18    0.00000     0.00  LINEAR    3.65639E-02  -123.45    0.00000E+00     0.00
 -170.00    25.00     -16.14 -999.99  -16.14    0.00000     0.00  LINEAR    7.32761E-02  -123.45    0.00000E+00     0.00
 -165.00    25.00     -12.59 -999.99  -12.59    0.00000     0.00  LINEAR    1.10260E-01  -123.46    0.00000E+00     0.00
 -160.00    25.00     -10.06 -999.99  -10.06    0.00000     0.00  LINEAR    1.47592E-01  -123.48    0.00000E+00     0.00
 -155.00    25.00      -8.08 -999.99   -8.08    0.00000     0.00  LINEAR    1.85277E-01  -123.50    0.00000E+00     0.00
 -150.00    25.00      -6.46 -999.99   -6.46    0.00000     0.00  LINEAR    2.23229E-01  -123.52    0.00000E+00     0.00
 -145.00    25.00      -5.10 -999.99   -5.10    0.00000     0.00  LINEAR    2.61259E-01  -123.54    0.00000E+00     0.00
 -140.00    25.00      -3.92 -999.99   -3.92    0.00000     0.00  LINEAR    2.99064E-01  -123.56    0.00000E+00     0.00
 -135.00    25.00      -2.91 -999.99   -2.91    0.00000     0.00  LINEAR    3.36223E-01  -123.59    0.00000E+00     0.00
 -130.00    25.00      -2.02 -999.99   -2.02    0.00000     0.00  LINEAR    3.72207E-01  -123.61    0.00000E+00     0.00
 -125.00    25.00      -1.26 -999.99   -1.26    0.00000     0.00  LINEAR    4.06389E-01  -123.63    0.00000E+00     0.00
 -120.00    25.00      -0.61 -999.99   -0.61    0.00000     0.00  LINEAR    4.38074E-01  -123.65    0.00000E+00     0.00
 -115.00    25.00      -0.06 -999.99   -0.06    0.00000     0.00  LINEAR    4.66532E-01  -123.67    0.00000E+00     0.00
 -110.00    25.00       0.38 -999.99    0.38    0.00000     0.00  LINEAR    4.91035E-01  -123.68    0.00000E+00     0.00
 -105.00    25.00       0.73 -999.99    0.73    0.00000     0.00  LINEAR    5.10905E-01  -123.69    0.00000E+00     0.00
 -100.00    25.00       0.97 -999.99    0.97    0.00000     0.00  LINEAR    5.25556E-01  -123.70    0.00000E+00     0.00
  -95.00    25.00       1.12 -999.99    1.12    0.00000     0.00  LINEAR    5.34537E-01  -123.71    0.00000E+00     0.00
  -90.00    25.00       1.17 -999.99    1.17    0.00000     0.00  LINEAR    5.37563E-01  -123.71    0.00000E+00     0.00
  -85.00    25.00       1.12 -999.99    1.12    0.00000     0.00  LINEAR    5.34537E-01  -123.71    0.00000E+00     0.00
  -80.00    25.00       0.97 -999.99    0.97    0.00000     0.00  LINEAR    5.25556E-01  -123.70    0.00000E+00     0.00
  -75.00    25.00       0.73 -999.99    0.73    0.00000     0.00  LINEAR    5.10905E-01  -123.69    0.00000E+00     0.00
  -70.00    25.00       0.38 -999.99    0.38    0.00000     0.00  LINEAR    4.91035E-01  -123.68    0.00000E+00     0.00
  -65.00    25.00      -0.06 -999.99   -0.06    0.00000     0.00  LINEAR    4.66532E-01  -123.67    0.00000E+00     0.00
  -60.00    25.00      -0.61 -999.99   -0.61    0.00000     0.00  LINEAR    4.38074E-01  -123.65    0.00000E+00     0.00
  -55.00    25.00      -1.26 -999.99   -1.26    0.00000     0.00  LINEAR    4.06389E-01  -123.63    0.00000E+00     0.00
  -50.00    25.00      -2.02 -999.99   -2.02    0.00000     0.00  LINEAR    3.72207E-01  -123.61    0.00000E+00     0.00
  -45.00    25.00      -2.91 -999.99   -2.91    0.00000     0.00  LINEAR    3.36223E-01  -123.59    0.00000E+00     0.00
  -40.00    25.00      -3.92 -999.99   -3.92    0.00000     0.00  LINEAR    2.99064E-01  -123.56    0.00000E+00     0.00
  -35.00    25.00      -5.10 -999.99   -5.10    0.00000     0.00  LINEAR    2.61259E-01  -123.54    0.00000E+00     0.00
  -30.00    25.00      -6.46 -999.99   -6.46    0.00000     0.00  LINEAR    2.23229E-01  -123.52    0.00000E+00     0.00
  -25.00    25.00      -8.08 -999.99   -8.08    0.00000     0.00  LINEAR    1.85277E-01  -123.50    0.00000E+00     0.00
  -20.00    25.00     -10.06 -999.99  -10.06    0.00000     0.00  LINEAR    1.47592E-01  -123.48    0.00000E+00     0.00
  -15.00    25.00     -12.59 -999.99  -12.59    0.00000     0.00  LINEAR    1.10260E-01  -123.46    0.00000E+00     0.00
  -10.00    25.00     -16.14 -999.99  -16.14    0.00000     0.00  LINEAR    7.32761E-02  -123.45    0.00000E+00     0.00
   -5.00    25.00     -22.18 -999.99  -22.18    0.00000     0.00  LINEAR    3.65639E-02  -123.45    0.00000E+00     0.00
    0.00    25.00    -999.99 -999.99 -999.99    0.00000     0.00            0.00000E+00     0.00    0.00000E+00     0.00
 -180.00    30.00    -999.99 -999.99 -999.99    0.00000     0.00            4.27358E-12    56.56    0.00000E+00     0.00
 -175.00    30.00     -22.18 -999.99  -22.18    0.00000     0.00  LINEAR    3.65639E-02  -123.45    0.00000E+00     0.00
 -170.00    30.00     -16.14 -999.99  -16.14    0.00000     0.00  LINEAR    7.32761E-02  -123.45    0.00000E+00     0.00
 -165.00    30.00     -12.59 -999.99  -12.59    0.00000     0.00  LINEAR    1.10260E-01  -123.46    0.00000E+00     0.00
 -160.00    30.00     -10.06 -999.99  -10.06    0.00000     0.00  LINEAR    1.47592E-01  -123.48    0.00000E+00     0.00
 -155.00    30.00      -8.08 -999.99   -8.08    0.00000     0.00  LINEAR    1.85277E-01  -123.50    0.00000E+00     0.00
 -150.00    30.00      -6.46 -999.99   -6.46    0.00000     0.00  LINEAR    2.23229E-01  -123.52    0.00000E+00     0.00
 -145.00    30.00      -5.10 -999.99   -5.10    0.00000     0.00  LINEAR    2.61259E-01  -123.54    0.00000E+00     0.00
 -140.00    30.00      -3.92 -999.99   -3.92    0.00000     0.00  LINEAR    2.99064E-01  -123.56    0.00000E+00     0.00
 -135.00    30.00      -2.91 -999.99   -2.91    0.00000     0.00  LINEAR    3.36223E-01  -123.59    0.00000E+00     0.00
 -130.00    30.00      -2.02 -999.99   -2.02    0.00000     0.00  LINEAR    3.72207E-01  -123.61    0.00000E+00     0.00
 -125.00    30.00      -1.26 -999.99   -1.26    0.00000     0.00  LINEAR    4.06389E-01  -123.63    0.00000E+00     0.00
 -120.00    30.00      -0.61 -999.99   -0.61    0.00000     0.00  LINEAR    4.38074E-01  -123.65    0.00000E+00     0.00
 -115.00    30.00      -0.06 -999.99   -0.06    0.00000     0.00  LINEAR    4.66532E-01  -123.67    0.00000E+00     0.00
 -110.00    30.00       0.38 -999.99    0.38    0.00000     0.00  LINEAR    4.91035E-01  -123.68    0.00000E+00     0.00
 -105.00    30.00       0.73 -999.99    0.73    0.00000     0.00  LINEAR    5.10905E-01  -123.69    0.00000E+00     0.00
 -100.00    30.00       0.97 -999.99    0.97    0.00000     0.00  LINEAR    5.25556E-01  -123.70    0.00000E+00     0.00
  -95.00    30.00       1.12 -999.99    1.12    0.00000     0.00  LINEAR    5.34537E-01  -123.71    0.00000E+00     0.00
  -90.00    30.00       1.17 -999.99    1.17    0.00000     0.00  LINEAR    5.37563E-01  -123.71    0.00000E+00     0.00
  -85.00    30.00       1.12 -999.99    1.12    0.00000     0.00  LINEAR    5.34537E-01  -123.71    0.00000E+00     0.00
  -80.00    30.00       0.97 -999.99    0.97    0.00000     0.00  LINEAR    5.25556E-01  -123.70    0.00000E+00     0.00
  -75.00    30.00       0.73 -999.99    0.73    0.00000     0.00  LINEAR    5.10905E-01  -123.69    0.00000E+00     0.00
  -70.00    30.00       0.38 -999.99    0.38    0.00000     0.00  LINEAR    4.91035E-01  -123.68    0.00000E+00     0.00
  -65.00    30.00      -0.06 -999.99   -0.06    0.00000     0.00  LINEAR    4.66532E-01  -123.67    0.00000E+00     0.00
  -60.00    30.00      -0.61 -999.99   -0.61    0.00000     0.00  LINEAR    4.38074E-01  -123.65    0.00000E+00     0.00
  -55.00    30.00      -1.26 -999.99   -1.26    0.00000     0.00  LINEAR    4.06389E-01  -123.63    0.00000E+00     0.00
  -50.00    30.00      -2.02 -999.99   -2.02    0.00000     0.00  LINEAR    3.72207E-01  -123.61    0.00000E+00     0.00
  -45.00    30.00      -2.91 -999.99   -2.91    0.00000     0.00  LINEAR    3.36223E-01  -123.59    0.00000E+00     0.00
  -40.00    30.00      -3.92 -999.99   -3.92    0.00000     0.00  LINEAR    2.99064E-01  -123.56    0.00000E+00     0.00
  -35.00    30.00      -5.10 -999.99   -5.10    0.00000     0.00  LINEAR    2.61259E-01  -123.54    0.00000E+00     0.00
  -30.00    30.00      -6.46 -999.99   -6.46    0.00000     0.00  LINEAR    2.23229E-01  -123.52    0.00000E+00     0.00
  -25.00    30.00      -8.08 -999.99   -8.08    0.00000     0.00  LINEAR    1.85277E-01  -123.50    0.00000E+00     0.00
  -20.00    30.00     -10.06 -999.99  -10.06    0.00000     0.00  LINEAR    1.47592E-01  -123.48    0.00000E+00     0.00
  -15.00    30.00     -12.59 -999.99  -12.59    0.00000     0.00  LINEAR    1.10260E-01  -123.46    0.00000E+00     0.00
  -10.00    30.00     -16.14 -999.99  -16.14    0.00000     0.00  LINEAR    7.32761E-02  -123.45    0.00000E+00     0.00
   -5.00    30.00     -22.18 -999.99  -22.18    0.00000     0.00  LINEAR    3.65639E-02  -123.45    0.00000E+00     0.00
    0.00    30.00    -999.99 -999.99 -999.99    0.00000     0.00            0.00000E+00     0.00    0.00000E+00     0.00
 -180.00    35.00    -999.99 -999.99 -999.99    0.00000     0.00            4.27358E-12    56.56    0.00000E+00     0.00
 -175.00    35.00     -22.18 -999.99  -22.18    0.00000     0.00  LINEAR    3.65639E-02  -123.45    0.00000E+00     0.00
 -170.00    35.00     -16.14 -999.99  -16.14    0.00000     0.00  LINEAR    7.32761E-02  -123.45    0.00000E+00     0.00
 -165.00    35.00     -12.59 -999.99  -12.59    0.00000     0.00  LINEAR    1.10260E-01  -123.46    0.00000E+00     0.00
 -160.00    35.00     -10.06 -999.99  -10.06    0.00000     0.00  LINEAR    1.47592E-01  -123.48    0.00000E+00     0.00
 -155.00    35.00      -8.08 -999.99   -8.08    0.00000     0.00  LINEAR    1.85277E-01  -123.50    0.00000E+00     0.00
 -150.00    35.00      -6.46 -999.99   -6.46    0.00000     0.00  LINEAR    2.23229E-01  -123.52    0.00000E+00     0.00
 -145.00    35.00      -5.10 -999.99   -5.10    0.00000     0.00  LINEAR    2.61259E-01  -123.54    0.00000E+00     0.00
 -140.00    35.00      -3.92 -999.99   -3.92    0.00000     0.00  LINEAR    2.99064E-01  -123.56    0.00000E+00     0.00
 -135.00    35.00      -2.91 -999.99   -2.91    0.00000     0.00  LINEAR    3.36223E-01  -123.59    0.00000E+00     0.00
 -130.00    35.00      -2.02 -999.99   -2.02    0.00000     0.00  LINEAR    3.72207E-01  -123.61    0.00000E+00     0.00
 -125.00    35.00      -1.26 -999.99   -1.26    0.00000     0.00  LINEAR    4.06389E-01  -123.63    0.00000E+00     0.00
 -120.00    35.00      -0.61 -999.99   -0.61    0.00000     0.00  LINEAR    4.38074E-01  -123.65    0.00000E+00     0.00
 -115.00    35.00      -0.06 -999.99   -0.06    0.00000     0.00  LINEAR    4.66532E-01  -123.67    0.00000E+00     0.00
 -110.00    35.00       0.38 -999.99    0.38    0.00000     0.00  LINEAR    4.91035E-01  -123.68    0.00000E+00     0.00
 -105.00    35.00       0.73 -999.99    0.73    0.00000     0.00  LINEAR    5.10905E-01  -123.69    0.00000E+00     0.00
 -100.00    35.00       0.97 -999.99    0.97    0.00000     0.00  LINEAR    5.25556E-01  -123.70    0.00000E+00     0.00
  -95.00    35.00       1.12 -999.99    1.12    0.00000     0.00  LINEAR    5.34537E-01  -123.71    0.00000E+00     0.00
  -90.00    35.00       1.17 -999.99    1.17    0.00000     0.00  LINEAR    5.37563E-01  -123.71    0.00000E+00     0.00
  -85.00    35.00       1.12 -999.99    1.12    0.00000     0.00  LINEAR    5.34537E-01  -123.71    0.00000E+00     0.00
  -80.00    35.00       0.97 -999.99    0.97    0.00000     0.00  LINEAR    5.25556E-01  -123.70    0.00000E+00     0.00
  -75.00    35.00       0.73 -999.99    0.73    0.00000     0.00  LINEAR    5.10905E-01  -123.69    0.00000E+00     0.00
  -70.00    35.00       0.38 -999.99    0.38    0.00000     0.00  LINEAR    4.91035E-01  -123.68    0.00000E+00     0.00
  -65.00    35.00      -0.06 -999.99   -0.06    0.00000     0.00  LINEAR    4.66532E-01  -123.67    0.00000E+00     0.00
  -60.00    35.00      -0.61 -999.99   -0.61    0.00000     0.00  LINEAR    4.38074E-01  -123.65    0.00000E+00     0.00
  -55.00    35.00      -1.26 -999.99   -1.26    0.00000     0.00  LINEAR    4.06389E-01  -123.63    0.00000E+00     0.00
  -50.00    35.00      -2.02 -999.99   -2.02    0.00000     0.00  LINEAR    3.72207E-01  -123.61    0.00000E+00     0.00
  -45.00    35.00      -2.91 -999.99   -2.91    0.00000     0.00  LINEAR    3.36223E-01  -123.59    0.00000E+00     0.00
  -40.00    35.00      -3.92 -999.99   -3.92    0.00000     0.00  LINEAR    2.99064E-01  -123.56    0.00000E+00     0.00
  -35.00    35.00      -5.10 -999.99   -5.10    0.00000     0.00  LINEAR    2.61259E-01  -123.54    0.00000E+00     0.00
  -30.00    35.00      -6.46 -999.99   -6.46    0.00000     0.00  LINEAR    2.23229E-01  -123.52    0.00000E+00     0.00
  -25.00    35.00      -8.08 -999.99   -8.08    0.00000     0.00  LINEAR    1.85277E-01  -123.50    0.00000E+00     0.00
  -20.00    35.00     -10.06 -999.99  -10.06    0.00000     0.00  LINEAR    1.47592E-01  -123.48    0.00000E+00     0.00
  -15.00    35.00     -12.59 -999.99  -12.59    0.00000     0.00  LINEAR    1.10260E-01  -123.46    0.00000E+00     0.00
  -10.00    35.00     -16.14 -999.99  -16.14    0.00000     0.00  LINEAR    7.32761E-02  -123.45    0.00000E+00     0.00
   -5.00    35.00     -22.18 -999.99  -22.18    0.00000     0.00  LINEAR    3.65639E-02  -123.45    0.00000E+00     0.00
    0.00    35.00    -999.99 -999.99 -999.99    0.00000     0.00            0.00000E+00     0.00    0.00000E+00     0.00
 -180.00    40.00    -999.99 -999.99 -999.99    0.00000     0.00            4.27358E-12    56.56    0.00000E+00     0.00
 -175.00    40.00     -22.18 -999.99  -22.18    0.00000     0.00  LINEAR    3.65639E-02  -123.45    0.00000E+00     0.00
 -170.00    40.00     -16.14 -999.99  -16.14    0.00000     0.00  LINEAR    7.32761E-02  -123.45    0.00000E+00     0.00
 -165.00    40.00     -12.59 -999.99  -12.59    0.00000     0.00  LINEAR    1.10260E-01  -123.46    0.00000E+00     0.00
 -160.00    40.00     -10.06 -999.99  -10.06    0.00000     0.00  LINEAR    1.47592E-01  -123.48    0.00000E+00     0.00
 -155.00    40.00      -8.08 -999.99   -8.08    0.00000     0.00  LINEAR    1.85277E-01  -123.50    0.00000E+00     0.00
 -150.00    40.00      -6.46 -999.99   -6.46    0.00000     0.00  LINEAR    2.23229E-01  -123.52    0.00000E+00     0.00
 -145.00    40.00      -5.10 -999.99   -5.10    0.00000     0.00  LINEAR    2.61259E-01  -123.54    0.00000E+00     0.00
 -140.00    40.00      -3.92 -999.99   -3.92    0.00000     0.00  LINEAR    2.99064E-01  -123.56    0.00000E+00     0.00
 -135.00    40.00      -2.91 -999.99   -2.91    0.00000     0.00  LINEAR    3.36223E-01  -123.59    0.00000E+00     0.00
 -130.00    40.00      -2.02 -999.99   -2.02    0.00000     0.00  LINEAR    3.72207E-01  -123.61    0.00000E+00     0.00
 -125.00    40.00      -1.26 -999.99   -1.26    0.00000     0.00  LINEAR    4.06389E-01  -123.63    0.00000E+00     0.00
 -120.00    40.00      -0.61 -999.99   -0.61    0.00000     0.00  LINEAR    4.38074E-01  -123.65    0.00000E+00     0.00
 -115.00    40.00      -0.06 -999.99   -0.06    0.00000     0.00  LINEAR    4.66532E-01  -123.67    0.00000E+00     0.00
 -110.00    40.00       0.38 -999.99    0.38    0.00000     0.00  LINEAR    4.91035E-01  -123.68    0.00000E+00     0.00
 -105.00    40.00       0.73 -999.99    0.73    0.00000     0.00  LINEAR    5.10905E-01  -123.69    0.00000E+00     0.00
 -100.00    40.00       0.97 -999.99    0.97    0.00000     0.00  LINEAR    5.25556E-01  -123.70    0.00000E+00     0.00
  -95.00    40.00       1.12 -999.99    1.12    0.00000     0.00  LINEAR    5.34537E-01  -123.71    0.00000E+00     0.00
  -90.00    40.00       1.17 -999.99    1.17    0.00000     0.00  LINEAR    5.37563E-01  -123.71    0.00000E+00     0.00
  -85.00    40.00       1.12 -999.99    1.12    0.00000     0.00  LINEAR    5.34537E-01  -123.71    0.00000E+00     0.00
  -80.00    40.00       0.97 -999.99    0.97    0.00000     0.00  LINEAR    5.25556E-01  -123.70    0.00000E+00     0.00
  -75.00    40.00       0.73 -999.99    0.73    0.00000     0.00  LINEAR    5.10905E-01  -123.69    0.00000E+00     0.00
  -70.00    40.00       0.38 -999.99    0.38    0.00000     0.00  LINEAR    4.91035E-01  -123.68    0.00000E+00     0.00
  -65.00    40.00      -0.06 -999.99   -0.06    0.00000     0.00  LINEAR    4.66532E-01  -123.67    0.00000E+00     0.00
  -60.00    40.00      -0.61 -999.99   -0.61    0.00000     0.00  LINEAR    4.38074E-01  -123.65    0.00000E+00     0.00
  -55.00    40.00      -1.26 -999.99   -1.26    0.00000     0.00  LINEAR    4.06389E-01  -123.63    0.00000E+00     0.00
  -50.00    40.00      -2.02 -999.99   -2.02    0.00000     0.00  LINEAR    3.72207E-01  -123.61    0.00000E+00     0.00
  -45.00    40.00      -2.91 -999.99   -2.91    0.00000     0.00  LINEAR    3.36223E-01  -123.59    0.00000E+00     0.00
  -40.00    40.00      -3.92 -999.99   -3.92    0.00000     0.00  LINEAR    2.99064E-01  -123.56    0.00000E+00     0.00
  -35.00    40.00      -5.10 -999.99   -5.10    0.00000     0.00  LINEAR    2.61259E-01  -123.54    0.00000E+00     0.00
  -30.00    40.00      -6.46 -999.99   -6.46    0.00000     0.00  LINEAR    2.23229E-01  -123.52    0.00000E+00     0.00
  -25.00    40.00      -8.08 -999.99   -8.08    0.00000     0.00  LINEAR    1.85277E-01  -123.50    0.00000E+00     0.00
  -20.00    40.00     -10.06 -999.99  -10.06    0.00000     0.00  LINEAR    1.47592E-01  -123.48    0.00000E+00     0.00
  -15.00    40.00     -12.59 -999.99  -12.59    0.00000     0.00  LINEAR    1.10260E-01  -123.46    0.00000E+00     0.00
  -10.00    40.00     -16.14 -999.99  -16.14    0.00000     0.00  LINEAR    7.32761E-02  -123.45    0.00000E+00     0.00
   -5.00    40.00     -22.18 -999.99  -22.18    0.00000     0.00  LINEAR    3.65639E-02  -123.45    0.00000E+00     0.00
    0.00    40.00    -999.99 -999.99 -999.99    0.00000     0.00            0.00000E+00     0.00    0.00000E+00     0.00
 -180.00    45.00    -999.99 -999.99 -999.99    0.00000     0.00            4.27358E-12    56.56    0.00000E+00     0.00
 -175.00    45.00     -22.18 -999.99  -22.18    0.00000     0.00  LINEAR    3.65639E-02  -123.45    0.00000E+00     0.00
 -170.00    45.00     -16.14 -999.99  -16.14    0.00000     0.00  LINEAR    7.32761E-02  -123.45    0.00000E+00     0.00
 -165.00    45.00     -12.59 -999.99  -12.59    0.00000     0.00  LINEAR    1.10260E-01  -123.46    0.00000E+00     0.00
 -160.00    45.00     -10.06 -999.99  -10.06    0.00000     0.00  LINEAR    1.47592E-01  -123.48    0.00000E+00     0.00
 -155.00    45.00      -8.08 -999.99   -8.08    0.00000     0.00  LINEAR    1.85277E-01  -123.50    0.00000E+00     0.00
 -150.00    45.00      -6.46 -999.99   -6.46    0.00000     0.00  LINEAR    2.23229E-01  -123.52    0.00000E+00     0.00
 -145.00    45.00      -5.10 -999.99   -5.10    0.00000     0.00  LINEAR    2.61259E-01  -123.54    0.00000E+00     0.00
 -140.00    45.00      -3.92 -999.99   -3.92    0.00000     0.00  LINEAR    2.99064E-01  -123.56    0.00000E+00     0.00
 -135.00    45.00      -2.91 -999.99   -2.91    0.00000     0.00  LINEAR    3.36223E-01  -123.59    0.00000E+00     0.00
 -130.00    45.00      -2.02 -999.99   -2.02    0.00000     0.00  LINEAR    3.72207E-01  -123.61    0.00000E+00     0.00
 -125.00    45.00      -1.26 -999.99   -1.26    0.00000     0.00  LINEAR    4.06389E-01  -123.63    0.00000E+00     0.00
 -120.00    45.00      -0.61 -999.99   -0.61    0.00000     0.00  LINEAR    4.38074E-01  -123.65    0.00000E+00     0.00
 -115.00    45.00      -0.06 -999.99   -0.06    0.00000     0.00  LINEAR    4.66532E-01  -123.67    0.00000E+00     0.00
 -110.00    45.00       0.38 -999.99    0.38    0.00000     0.00  LINEAR    4.91035E-01  -123.68    0.00000E+00     0.00
 -105.00    45.00       0.73 -999.99    0.73    0.00000     0.00  LINEAR    5.10905E-01  -123.69    0.00000E+00     0.00
 -100.00    45.00       0.97 -999.99    0.97    0.00000     0.00  LINEAR    5.25556E-01  -123.70    0.00000E+00     0.00
  -95.00    45.00       1.12 -999.99    1.12    0.00000     0.00  LINEAR    5.34537E-01  -123.71    0.00000E+00     0.00
  -90.00    45.00       1.17 -999.99    1.17    0.00000     0.00  LINEAR    5.37563E-01  -123.71    0.00000E+00     0.00
  -85.00    45.00       1.12 -999.99    1.12    0.00000     0.00  LINEAR    5.34537E-01  -123.71    0.00000E+00     0.00
  -80.00    45.00       0.97 -999.99    0.97    0.00000     0.00  LINEAR    5.25556E-01  -123.70    0.00000E+00     0.00
  -75.00    45.00       0.73 -999.99    0.73    0.00000     0.00  LINEAR    5.10905E-01  -123.69    0.00000E+00     0.00
  -70.00    45.00       0.38 -999.99    0.38    0.00000     0.00  LINEAR    4.91035E-01  -123.68    0.00000E+00     0.00
  -65.00    45.00      -0.06 -999.99   -0.06    0.00000     0.00  LINEAR    4.66532E-01  -123.67    0.00000E+00     0.00
  -60.00    45.00      -0.61 -999.99   -0.61    0.00000     0.00  LINEAR    4.38074E-01  -123.65    0.00000E+00     0.00
  -55.00    45.00      -1.26 -999.99   -1.26    0.00000     0.00  LINEAR    4.06389E-01  -123.63    0.00000E+00     0.00
  -50.00    45.00      -2.02 -999.99   -2.02    0.00000     0.00  LINEAR    3.72207E-01  -123.61    0.00000E+00     0.00
  -45.00    45.00      -2.91 -999.99   -2.91    0.00000     0.00  LINEAR    3.36223E-01  -123.59    0.00000E+00     0.00
  -40.00    45.00      -3.92 -999.99   -3.92    0.00000     0.00  LINEAR    2.99064E-01  -123.56    0.00000E+00     0.00
  -35.00    45.00      -5.10 -999.99   -5.10    0.00000     0.00  LINEAR    2.61259E-01  -123.54    0.00000E+00     0.00
  -30.00    45.00      -6.46 -999.99   -6.46    0.00000     0.00  LINEAR    2.23229E-01  -123.52    0.00000E+00     0.00
  -25.00    45.00      -8.08 -999.99   -8.08    0.00000     0.00  LINEAR    1.85277E-01  -123.50    0.00000E+00     0.00
  -20.00    45.00     -10.06 -999.99  -10.06    0.00000     0.00  LINEAR    1.47592E-01  -123.48    0.00000E+00     0.00
  -15.00    45.00     -12.59 -999.99  -12.59    0.00000     0.00  LINEAR    1.10260E-01  -123.46    0.00000E+00     0.00
  -10.00    45.00     -16.14 -999.99  -16.14    0.00000     0.00  LINEAR    7.32761E-02  -123.45    0.00000E+00     0.00
   -5.00    45.00     -22.18 -999.99  -22.18    0.00000     0.00  LINEAR    3.65639E-02  -123.45    0.00000E+00     0.00
    0.00    45.00    -999.99 -999.99 -999.99    0.00000     0.00            0.00000E+00     0.00    0.00000E+00     0.00
 -180.00    50.00    -999.99 -999.99 -999.99    0.00000     0.00            4.27358E-12    56.56    0.00000E+00     0.00
 -175.00    50.00     -22.18 -999.99  -22.18    0.00000     0.00  LINEAR    3.65639E-02  -123.45    0.00000E+00     0.00
 -170.00    50.00     -16.14 -999.99  -16.14    0.00000     0.00  LINEAR    7.32761E-02  -123.45    0.00000E+00     0.00
 -165.00    50.00     -12.59 -999.99  -12.59    0.00000     0.00  LINEAR    1.10260E-01  -123.46    0.00000E+00     0.00
 -160.00    50.00     -10.06 -999.99  -10.06    0.00000     0.00  LINEAR    1.47592E-01  -123.48    0.00000E+00     0.00
 -155.00    50.00      -8.08 -999.99   -8.08    0.00000     0.00  LINEAR    1.85277E-01  -123.50    0.00000E+00     0.00
 -150.00    50.00      -6.46 -999.99   -6.46    0.00000     0.00  LINEAR    2.23229E-01  -123.52    0.00000E+00     0.00
 -145.00    50.00      -5.10 -999.99   -5.10    0.00000     0.00  LINEAR    2.61259E-01  -123.54    0.00000E+00     0.00
 -140.00    50.00      -3.92 -999.99   -3.92    0.00000     0.00  LINEAR    2.99064E-01  -123.56    0.00000E+00     0.00
 -135.00    50.00      -2.91 -999.99   -2.91    0.00000     0.00  LINEAR    3.36223E-01  -123.59    0.00000E+00     0.00
 -130.00    50.00      -2.02 -999.99   -2.02    0.00000     0.00  LINEAR    3.72207E-01  -123.61    0.00000E+00     0.00
 -125.00    50.00      -1.26 -999.99   -1.26    0.00000     0.00  LINEAR    4.06389E-01  -123.63    0.00000E+00     0.00
 -120.00    50.00      -0.61 -999.99   -0.61    0.00000     0.00  LINEAR    4.38074E-01  -123.65    0.00000E+00     0.00
 -115.00    50.00      -0.06 -999.99   -0.06    0.00000     0.00  LINEAR    4.66532E-01  -123.67    0.00000E+00     0.00
 -110.00    50.00       0.38 -999.99    0.38    0.00000     0.00  LINEAR    4.91035E-01  -123.68    0.00000E+00     0.00
 -105.00    50.00       0.73 -999.99    0.73    0.00000     0.00  LINEAR    5.10905E-01  -123.69    0.00000E+00     0.00
 -100.00    50.00       0.97 -999.99    0.97    0.00000     0.00  LINEAR    5.25556E-01  -123.70    0.00000E+00     0.00
  -95.00    50.00       1.12 -999.99    1.12    0.00000     0.00  LINEAR    5.34537E-01  -123.71    0.00000E+00     0.00
  -90.00    50.00       1.17 -999.99    1.17    0.00000     0.00  LINEAR    5.37563E-01  -123.71    0.00000E+00     0.00
  -85.00    50.00       1.12 -999.99    1.12    0.00000     0.00  LINEAR    5.34537E-01  -123.71    0.00000E+00     0.00
  -80.00    50.00       0.97 -999.99    0.97    0.00000     0.00  LINEAR    5.25556E-01  -123.70    0.00000E+00     0.00
  -75.00    50.00       0.73 -999.99    0.73    0.00000     0.00  LINEAR    5.10905E-01  -123.69    0.00000E+00     0.00
  -70.00    50.00       0.38 -999.99    0.38    0.00000     0.00  LINEAR    4.91035E-01  -123.68    0.00000E+00     0.00
  -65.00    50.00      -0.06 -999.99   -0.06    0.00000     0.00  LINEAR    4.66532E-01  -123.67    0.00000E+00     0.00
  -60.00    50.00      -0.61 -999.99   -0.61    0.00000     0.00  LINEAR    4.38074E-01  -123.65    0.00000E+00     0.00
  -55.00    50.00      -1.26 -999.99   -1.26    0.00000     0.00  LINEAR    4.06389E-01  -123.63    0.00000E+00     0.00
  -50.00    50.00      -2.02 -999.99   -2.02    0.00000     0.00  LINEAR    3.72207E-01  -123.61    0.00000E+00     0.00
  -45.00    50.00      -2.91 -999.99   -2.91    0.00000     0.00  LINEAR    3.36223E-01  -123.59    0.00000E+00     0.00
  -40.00    50.00      -3.92 -999.99   -3.92    0.00000     0.00  LINEAR    2.99064E-01  -123.56    0.00000E+00     0.00
  -35.00    50.00      -5.10 -999.99   -5.10    0.00000     0.00  LINEAR    2.61259E-01  -123.54    0.00000E+00     0.00
  -30.00    50.00      -6.46 -999.99   -6.46    0.00000     0.00  LINEAR    2.23229E-01  -123.52    0.00000E+00     0.00
  -25.00    50.00      -8.08 -999.99   -8.08    0.00000     0.00  LINEAR    1.85277E-01  -123.50    0.00000E+00     0.00
  -20.00    50.00     -10.06 -999.99  -10.06    0.00000     0.00  LINEAR    1.47592E-01  -123.48    0.00000E+00     0.00
  -15.00    50.00     -12.59 -999.99  -12.59    0.00000     0.00  LINEAR    1.10260E-01  -123.46    0.00000E+00     0.00
  -10.00    50.00     -16.14 -999.99  -16.14    0.00000     0.00  LINEAR    7.32761E-02  -123.45    0.00000E+00     0.00
   -5.00    50.00     -22.18 -999.99  -22.18    0.00000     0.00  LINEAR    3.65639E-02  -123.45    0.00000E+00     0.00
    0.00    50.00    -999.99 -999.99 -999.99    0.00000     0.00            0.00000E+00     0.00    0.00000E+00     0.00
 -180.00    55.00    -999.99 -999.99 -999.99    0.00000     0.00            4.27358E-12    56.56    0.00000E+00     0.00
 -175.00    55.00     -22.18 -999.99  -22.18    0.00000     0.00  LINEAR    3.65639E-02  -123.45    0.00000E+00     0.00
 -170.00    55.00     -16.14 -999.99  -16.14    0.00000     0.00  LINEAR    7.32761E-02  -123.45    0.00000E+00     0.00
 -165.00    55.00     -12.59 -999.99  -12.59    0.00000     0.00  LINEAR    1.10260E-01  -123.46    0.00000E+00     0.00
 -160.00    55.00     -10.06 -999.99  -10.06    0.00000     0.00  LINEAR    1.47592E-01  -123.48    0.00000E+00     0.00
 -155.00    55.00      -8.08 -999.99   -8.08    0.00000     0.00  LINEAR    1.85277E-01  -123.50    0.00000E+00     0.00
 -150.00    55.00      -6.46 -999.99   -6.46    0.00000     0.00  LINEAR    2.23229E-01  -123.52    0.00000E+00     0.00
 -145.00    55.00      -5.10 -999.99   -5.10    0.00000     0.00  LINEAR    2.61259E-01  -123.54    0.00000E+00     0.00
 -140.00    55.00      -3.92 -999.99   -3.92    0.00000     0.00  LINEAR    2.99064E-01  -123.56    0.00000E+00     0.00
 -135.00    55.00      -2.91 -999.99   -2.91    0.00000     0.00  LINEAR    3.36223E-01  -123.59    0.00000E+00     0.00
 -130.00    55.00      -2.02 -999.99   -2.02    0.00000     0.00  LINEAR    3.72207E-01  -123.61    0.00000E+00     0.00
 -125.00    55.00      -1.26 -999.99   -1.26    0.00000     0.00  LINEAR    4.06389E-01  -123.63    0.00000E+00     0.00
 -120.00    55.00      -0.61 -999.99   -0.61    0.00000     0.00  LINEAR    4.38074E-01  -123.65    0.00000E+00     0.00
 -115.00    55.00      -0.06 -999.99   -0.06    0.00000     0.00  LINEAR    4.66532E-01  -123.67    0.00000E+00     0.00
 -110.00    55.00       0.38 -999.99    0.38    0.00000     0.00  LINEAR    4.91035E-01  -123.68    0.00000E+00     0.00
 -105.00    55.00       0.73 -999.99    0.73    0.00000     0.00  LINEAR    5.10905E-01  -123.69    0.00000E+00     0.00
 -100.00    55.00       0.97 -999.99    0.97    0.00000     0.00  LINEAR    5.25556E-01  -123.70    0.00000E+00     0.00
  -95.00    55.00       1.12 -999.99    1.12    0.00000     0.00  LINEAR    5.34537E-01  -123.71    0.00000E+00     0.00
  -90.00    55.00       1.17 -999.99    1.17    0.00000     0.00  LINEAR    5.37563E-01  -123.71    0.00000E+00     0.00
  -85.00    55.00       1.12 -999.99    1.12    0.00000     0.00  LINEAR    5.34537E-01  -123.71    0.00000E+00     0.00
  -80.00    55.00       0.97 -999.99    0.97    0.00000     0.00  LINEAR    5.25556E-01  -123.70    0.00000E+00     0.00
  -75.00    55.00       0.73 -999.99    0.73    0.00000     0.00  LINEAR    5.10905E-01  -123.69    0.00000E+00     0.00
  -70.00    55.00       0.38 -999.99    0.38    0.00000     0.00  LINEAR    4.91035E-01  -123.68    0.00000E+00     0.00
  -65.00    55.00      -0.06 -999.99   -0.06    0.00000     0.00  LINEAR    4.66532E-01  -123.67    0.00000E+00     0.00
  -60.00    55.00      -0.61 -999.99   -0.61    0.00000     0.00  LINEAR    4.38074E-01  -123.65    0.00000E+00     0.00
  -55.00    55.00      -1.26 -999.99   -1.26    0.00000     0.00  LINEAR    4.06389E-01  -123.63    0.00000E+00     0.00
  -50.00    55.00      -2.02 -999.99   -2.02    0.00000     0.00  LINEAR    3.72207E-01  -123.61    0.00000E+00     0.00
  -45.00    55.00      -2.91 -999.99   -2.91    0.00000     0.00  LINEAR    3.36223E-01  -123.59    0.00000E+00     0.00
  -40.00    55.00      -3.92 -999.99   -3.92    0.00000     0.00  LINEAR    2.99064E-01  -123.56    0.00000E+00     0.00
  -35.00    55.00      -5.10 -999.99   -5.10    0.00000     0.00  LINEAR    2.61259E-01  -123.54    0.00000E+00     0.00
  -30.00    55.00      -6.46 -999.99   -6.46    0.00000     0.00  LINEAR    2.23229E-01  -123.52    0.00000E+00     0.00
  -25.00    55.00      -8.08 -999.99   -8.08    0.00000     0.00  LINEAR    1.85277E-01  -123.50    0.00000E+00     0.00
  -20.00    55.00     -10.06 -999.99  -10.06    0.00000     0.00  LINEAR    1.47592E-01  -123.48    0.00000E+00     0.00
  -15.00    55.00     -12.59 -999.99  -12.59    0.00000     0.00  LINEAR    1.10260E-01  -123.46    0.00000E+00     0.00
  -10.00    55.00     -16.14 -999.99  -16.14    0.00000     0.00  LINEAR    7.32761E-02  -123.45    0.00000E+00     0.00
   -5.00    55.00     -22.18 -999.99  -22.18    0.00000     0.00  LINEAR    3.65639E-02  -123.45    0.00000E+00     0.00
    0.00    55.00    -999.99 -999.99 -999.99    0.00000     0.00            0.00000E+00     0.00    0.00000E+00     0.00
 -180.00    60.00    -999.99 -999.99 -999.99    0.00000     0.00            4.27358E-12    56.56    0.00000E+00     0.00
 -175.00    60.00     -22.18 -999.99  -22.18    0.00000     0.00  LINEAR    3.65639E-02  -123.45    0.00000E+00     0.00
 -170.00    60.00     -16.14 -999.99  -16.14    0.00000     0.00  LINEAR    7.32761E-02  -123.45    0.00000E+00     0.00
 -165.00    60.00     -12.59 -999.99  -12.59    0.00000     0.00  LINEAR    1.10260E-01  -123.46    0.00000E+00     0.00
 -160.00    60.00     -10.06 -999.99  -10.06    0.00000     0.00  LINEAR    1.47592E-01  -123.48    0.00000E+00     0.00
 -155.00    60.00      -8.08 -999.99   -8.08    0.00000     0.00  LINEAR    1.85277E-01  -123.50    0.00000E+00     0.00
 -150.00    60.00      -6.46 -999.99   -6.46    0.00000     0.00  LINEAR    2.23229E-01  -123.52    0.00000E+00     0.00
 -145.00    60.00      -5.10 -999.99   -5.10    0.00000     0.00  LINEAR    2.61259E-01  -123.54    0.00000E+00     0.00
 -140.00    60.00      -3.92 -999.99   -3.92    0.00000     0.00  LINEAR    2.99064E-01  -123.56    0.00000E+00     0.00
 -135.00    60.00      -2.91 -999.99   -2.91    0.00000     0.00  LINEAR    3.36223E-01  -123.59    0.00000E+00     0.00
 -130.00    60.00      -2.02 -999.99   -2.02    0.00000     0.00  LINEAR    3.72207E-01  -123.61    0.00000E+00     0.00
 -125.00    60.00      -1.26 -999.99   -1.26    0.00000     0.00  LINEAR    4.06389E-01  -123.63    0.00000E+00     0.00
 -120.00    60.00      -0.61 -999.99   -0.61    0.00000     0.00  LINEAR    4.38074E-01  -123.65    0.00000E+00     0.00
 -115.00    60.00      -0.06 -999.99   -0.06    0.00000     0.00  LINEAR    4.66532E-01  -123.67    0.00000E+00     0.00
 -110.00    60.00       0.38 -999.99    0.38    0.00000     0.00  LINEAR    4.91035E-01  -123.68    0.00000E+00     0.00
 -105.00    60.00       0.73 -999.99    0.73    0.00000     0.00  LINEAR    5.10905E-01  -123.69    0.00000E+00     0.00
 -100.00    60.00       0.97 -999.99    0.97    0.00000     0.00  LINEAR    5.25556E-01  -123.70    0.00000E+00     0.00
  -95.00    60.00       1.12 -999.99    1.12    0.00000     0.00  LINEAR    5.34537E-01  -123.71    0.00000E+00     0.00
  -90.00    60.00       1.17 -999.99    1.17    0.00000     0.00  LINEAR    5.37563E-01  -123.71    0.00000E+00     0.00
  -85.00    60.00       1.12 -999.99    1.12    0.00000     0.00  LINEAR    5.34537E-01  -123.71    0.00000E+00     0.00
  -80.00    60.00       0.97 -999.99    0.97    0.00000     0.00  LINEAR    5.25556E-01  -123.70    0.00000E+00     0.00
  -75.00    60.00       0.73 -999.99    0.73    0.00000     0.00  LINEAR    5.10905E-01  -123.69    0.00000E+00     0.00
  -70.00    60.00       0.38 -999.99    0.38    0.00000     0.00  LINEAR    4.91035E-01  -123.68    0.00000E+00     0.00
  -65.00    60.00      -0.06 -999.99   -0.06    0.00000     0.00  LINEAR    4.66532E-01  -123.67    0.00000E+00     0.00
  -60.00    60.00      -0.61 -999.99   -0.61    0.00000     0.00  LINEAR    4.38074E-01  -123.65    0.00000E+00     0.00
  -55.00    60.00      -1.26 -999.99   -1.26    0.00000     0.00  LINEAR    4.06389E-01  -123.63    0.00000E+00     0.00
  -50.00    60.00      -2.02 -999.99   -2.02    0.00000     0.00  LINEAR    3.72207E-01  -123.61    0.00000E+00     0.00
  -45.00    60.00      -2.91 -999.99   -2.91    0.00000     0.00  LINEAR    3.36223E-01  -123.59    0.00000E+00     0.00
  -40.00    60.00      -3.92 -999.99   -3.92    0.00000     0.00  LINEAR    2.99064E-01  -123.56    0.00000E+00     0.00
  -35.00    60.00      -5.10 -999.99   -5.10    0.00000     0.00  LINEAR    2.61259E-01  -123.54    0.00000E+00     0.00
  -30.00    60.00      -6.46 -999.99   -6.46    0.00000     0.00  LINEAR    2.23229E-01  -123.52    0.00000E+00     0.00
  -25.00    60.00      -8.08 -999.99   -8.08    0.00000     0.00  LINEAR    1.85277E-01  -123.50    0.00000E+00     0.00
  -20.00    60.00     -10.06 -999.99  -10.06    0.00000     0.00  LINEAR    1.47592E-01  -123.48    0.00000E+00     0.00
  -15.00    60.00     -12.59 -999.99  -12.59    0.00000     0.00  LINEAR    1.10260E-01  -123.46    0.00000E+00     0.00
  -10.00    60.00     -16.14 -999.99  -16.14    0.00000     0.00  LINEAR    7.32761E-02  -123.45    0.00000E+00     0.00
   -5.00    60.00     -22.18 -999.99  -22.18    0.00000     0.00  LINEAR    3.65639E-02  -123.45    0.00000E+00     0.00
    0.00    60.00    -999.99 -999.99 -999.99    0.00000     0.00            0.00000E+00     0.00    0.00000E+00     0.00
 -180.00    65.00    -999.99 -999.99 -999.99    0.00000     0.00            4.27358E-12    56.56    0.00000E+00     0.00
 -175.00    65.00     -22.18 -999.99  -22.18    0.00000     0.00  LINEAR    3.65639E-02  -123.45    0.00000E+00     0.00
 -170.00    65.00     -16.14 -999.99  -16.14    0.00000     0.00  LINEAR    7.32761E-02  -123.45    0.00000E+00     0.00
 -165.00    65.00     -12.59 -999.99  -12.59    0.00000     0.00  LINEAR    1.10260E-01  -123.46    0.00000E+00     0.00
 -160.00    65.00     -10.06 -999.99  -10.06    0.00000     0.00  LINEAR    1.47592E-01  -123.48    0.00000E+00     0.00
 -155.00    65.00      -8.08 -999.99   -8.08    0.00000     0.00  LINEAR    1.85277E-01  -123.50    0.00000E+00     0.00
 -150.00    65.00      -6.46 -999.99   -6.46    0.00000     0.00  LINEAR    2.23229E-01  -123.52    0.00000E+00     0.00
 -145.00    65.00      -5.10 -999.99   -5.10    0.00000     0.00  LINEAR    2.61259E-01  -123.54    0.00000E+00     0.00
 -140.00    65.00      -3.92 -999.99   -3.92    0.00000     0.00  LINEAR    2.99064E-01  -123.56    0.00000E+00     0.00
 -135.00    65.00      -2.91 -999.99   -2.91    0.00000     0.00  LINEAR    3.36223E-01  -123.59    0.00000E+00     0.00
 -130.00    65.00      -2.02 -999.99   -2.02    0.00000     0.00  LINEAR    3.72207E-01  -123.61    0.00000E+00     0.00
 -125.00    65.00      -1.26 -999.99   -1.26    0.00000     0.00  LINEAR    4.06389E-01  -123.63    0.00000E+00     0.00
 -120.00    65.00      -0.61 -999.99   -0.61    0.00000     0.00  LINEAR    4.38074E-01  -123.65    0.00000E+00     0.00
 -115.00    65.00      -0.06 -999.99   -0.06    0.00000     0.00  LINEAR    4.66532E-01  -123.67    0.00000E+00     0.00
 -110.00    65.00       0.38 -999.99    0.38    0.00000     0.00  LINEAR    4.91035E-01  -123.68    0.00000E+00     0.00
 -105.00    65.00       0.73 -999.99    0.73    0.00000     0.00  LINEAR    5.10905E-01  -123.69    0.00000E+00     0.00
 -100.00    65.00       0.97 -999.99    0.97    0.00000     0.00  LINEAR    5.25556E-01  -123.70    0.00000E+00     0.00
  -95.00    65.00       1.12 -999.99    1.12    0.00000     0.00  LINEAR    5.34537E-01  -123.71    0.00000E+00     0.00
  -90.00    65.00       1.17 -999.99    1.17    0.00000     0.00  LINEAR    5.37563E-01  -123.71    0.00000E+00     0.00
  -85.00    65.00       1.12 -999.99    1.12    0.00000     0.00  LINEAR    5.34537E-01  -123.71    0.00000E+00     0.00
  -80.00    65.00       0.97 -999.99    0.97    0.00000     0.00  LINEAR    5.25556E-01  -123.70    0.00000E+00     0.00
  -75.00    65.00       0.73 -999.99    0.73    0.00000     0.00  LINEAR    5.10905E-01  -123.69    0.00000E+00     0.00
  -70.00    65.00       0.38 -999.99    0.38    0.00000     0.00  LINEAR    4.91035E-01  -123.68    0.00000E+00     0.00
  -65.00    65.00      -0.06 -999.99   -0.06    0.00000     0.00  LINEAR    4.66532E-01  -123.67    0.00000E+00     0.00
  -60.00    65.00      -0.61 -999.99   -0.61    0.00000     0.00  LINEAR    4.38074E-01  -123.65    0.00000E+00     0.00
  -55.00    65.00      -1.26 -999.99   -1.26    0.00000     0.00  LINEAR    4.06389E-01  -123.63    0.00000E+00     0.00
  -50.00    65.00      -2.02 -999.99   -2.02    0.00000     0.00  LINEAR    3.72207E-01  -123.61    0.00000E+00     0.00
  -45.00    65.00      -2.91 -999.99   -2.91    0.00000     0.00  LINEAR    3.36223E-01  -123.59    0.00000E+00     0.00
  -40.00    65.00      -3.92 -999.99   -3.92    0.00000     0.00  LINEAR    2.99064E-01  -123.56    0.00000E+00     0.00
  -35.00    65.00      -5.10 -999.99   -5.10    0.00000     0.00  LINEAR    2.61259E-01  -123.54    0.00000E+00     0.00
  -30.00    65.00      -6.46 -999.99   -6.46    0.00000     0.00  LINEAR    2.23229E-01  -123.52    0.00000E+00     0.00
  -25.00    65.00      -8.08 -999.99   -8.08    0.00000     0.00  LINEAR    1.85277E-01  -123.50    0.00000E+00     0.00
  -20.00    65.00     -10.06 -999.99  -10.06    0.00000     0.00  LINEAR    1.47592E-01  -123.48    0.00000E+00     0.00
  -15.00    65.00     -12.59 -999.99  -12.59    0.00000     0.00  LINEAR    1.10260E-01  -123.46    0.00000E+00     0.00
  -10.00    65.00     -16.14 -999.99  -16.14    0.00000     0.00  LINEAR    7.32761E-02  -123.45    0.00000E+00     0.00
   -5.00    65.00     -22.18 -999.99  -22.18    0.00000     0.00  LINEAR    3.65639E-02  -123.45    0.00000E+00     0.00
    0.00    65.00    -999.99 -999.99 -999.99    0.00000     0.00            0.00000E+00     0.00    0.00000E+00     0.00
 -180.00    70.00    -999.99 -999.99 -999.99    0.00000     0.00            4.27358E-12    56.56    0.00000E+00     0.00
 -175.00    70.00     -22.18 -999.99  -22.18    0.00000     0.00  LINEAR    3.65639E-02  -123.45    0.00000E+00     0.00
 -170.00    70.00     -16.14 -999.99  -16.14    0.00000     0.00  LINEAR    7.32761E-02  -123.45    0.00000E+00     0.00
 -165.00    70.00     -12.59 -999.99  -12.59    0.00000     0.00  LINEAR    1.10260E-01  -123.46    0.00000E+00     0.00
 -160.00    70.00     -10.06 -999.99  -10.06    0.00000     0.00  LINEAR    1.47592E-01  -123.48    0.00000E+00     0.00
 -155.00    70.00      -8.08 -999.99   -8.08    0.00000     0.00  LINEAR    1.85277E-01  -123.50    0.00000E+00     0.00
 -150.00    70.00      -6.46 -999.99   -6.46    0.00000     0.00  LINEAR    2.23229E-01  -123.52    0.00000E+00     0.00
 -145.00    70.00      -5.10 -999.99   -5.10    0.00000     0.00  LINEAR    2.61259E-01  -123.54    0.00000E+00     0.00
 -140.00    70.00      -3.92 -999.99   -3.92    0.00000     0.00  LINEAR    2.99064E-01  -123.56    0.00000E+00     0.00
 -135.00    70.00      -2.91 -999.99   -2.91    0.00000     0.00  LINEAR    3.36223E-01  -123.59    0.00000E+00     0.00
 -130.00    70.00      -2.02 -999.99   -2.02    0.00000     0.00  LINEAR    3.72207E-01  -123.61    0.00000E+00     0.00
 -125.00    70.00      -1.26 -999.99   -1.26    0.00000     0.00  LINEAR    4.06389E-01  -123.63    0.00000E+00     0.00
 -120.00    70.00      -0.61 -999.99   -0.61    0.00000     0.00  LINEAR    4.38074E-01  -123.65    0.00000E+00     0.00
 -115.00    70.00      -0.06 -999.99   -0.06    0.00000     0.00  LINEAR    4.66532E-01  -123.67    0.00000E+00     0.00
 -110.00    70.00       0.38 -999.99    0.38    0.00000     0.00  LINEAR    4.91035E-01  -123.68    0.00000E+00     0.00
 -105.00    70.00       0.73 -999.99    0.73    0.00000     0.00  LINEAR    5.10905E-01  -123.69    0.00000E+00     0.00
 -100.00    70.00       0.97 -999.99    0.97    0.00000     0.00  LINEAR    5.25556E-01  -123.70    0.00000E+00     0.00
  -95.00    70.00       1.12 -999.99    1.12    0.00000     0.00  LINEAR    5.34537E-01  -123.71    0.00000E+00     0.00
  -90.00    70.00       1.17 -999.99    1.17    0.00000     0.00  LINEAR    5.37563E-01  -123.71    0.00000E+00     0.00
  -85.00    70.00       1.12 -999.99    1.12    0.00000     0.00  LINEAR    5.34537E-01  -123.71    0.00000E+00     0.00
  -80.00    70.00       0.97 -999.99    0.97    0.00000     0.00  LINEAR    5.25556E-01  -123.70    0.00000E+00     0.00
  -75.00    70.00       0.73 -999.99    0.73    0.00000     0.00  LINEAR    5.10905E-01  -123.69    0.00000E+00     0.00
  -70.00    70.00       0.38 -999.99    0.38    0.00000     0.00  LINEAR    4.91035E-01  -123.68    0.00000E+00     0.00
  -65.00    70.00      -0.06 -999.99   -0.06    0.00000     0.00  LINEAR    4.66532E-01  -123.67    0.00000E+00     0.00
  -60.00    70.00      -0.61 -999.99   -0.61    0.00000     0.00  LINEAR    4.38074E-01  -123.65    0.00000E+00     0.00
  -55.00    70.00      -1.26 -999.99   -1.26    0.00000     0.00  LINEAR    4.06389E-01  -123.63    0.00000E+00     0.00
  -50.00    70.00      -2.02 -999.99   -2.02    0.00000     0.00  LINEAR    3.72207E-01  -123.61    0.00000E+00     0.00
  -45.00    70.00      -2.91 -999.99   -2.91    0.00000     0.00  LINEAR    3.36223E-01  -123.59    0.00000E+00     0.00
  -40.00    70.00      -3.92 -999.99   -3.92    0.00000     0.00  LINEAR    2.99064E-01  -123.56    0.00000E+00     0.00
  -35.00    70.00      -5.10 -999.99   -5.10    0.00000     0.00  LINEAR    2.61259E-01  -123.54    0.00000E+00     0.00
[...]
  -70.00   340.00       0.38 -999.99    0.38    0.00000     0.00  LINEAR    4.91035E-01  -123.68    0.00000E+00     0.00
  -65.00   340.00      -0.06 -999.99   -0.06    0.00000     0.00  LINEAR    4.66532E-01  -123.67    0.00000E+00     0.00
  -60.00   340.00      -0.61 -999.99   -0.61    0.00000     0.00  LINEAR    4.38074E-01  -123.65    0.00000E+00     0.00
  -55.00   340.00      -1.26 -999.99   -1.26    0.00000     0.00  LINEAR    4.06389E-01  -123.63    0.00000E+00     0.00
  -50.00   340.00      -2.02 -999.99   -2.02    0.00000     0.00  LINEAR    3.72207E-01  -123.61    0.00000E+00     0.00
  -45.00   340.00      -2.91 -999.99   -2.91    0.00000     0.00  LINEAR    3.36223E-01  -123.59    0.00000E+00     0.00
  -40.00   340.00      -3.92 -999.99   -3.92    0.00000     0.00  LINEAR    2.99064E-01  -123.56    0.00000E+00     0.00
  -35.00   340.00      -5.10 -999.99   -5.10    0.00000     0.00  LINEAR    2.61259E-01  -123.54    0.00000E+00     0.00
  -30.00   340.00      -6.46 -999.99   -6.46    0.00000     0.00  LINEAR    2.23229E-01  -123.52    0.00000E+00     0.00
  -25.00   340.00      -8.08 -999.99   -8.08    0.00000     0.00  LINEAR    1.85277E-01  -123.50    0.00000E+00     0.00
  -20.00   340.00     -10.06 -999.99  -10.06    0.00000     0.00  LINEAR    1.47592E-01  -123.48    0.00000E+00     0.00
  -15.00   340.00     -12.59 -999.99  -12.59    0.00000     0.00  LINEAR    1.10260E-01  -123.46    0.00000E+00     0.00
  -10.00   340.00     -16.14 -999.99  -16.14    0.00000     0.00  LINEAR    7.32761E-02  -123.45    0.00000E+00     0.00
   -5.00   340.00     -22.18 -999.99  -22.18    0.00000     0.00  LINEAR    3.65639E-02  -123.45    0.00000E+00     0.00
    0.00   340.00    -999.99 -999.99 -999.99    0.00000     0.00            0.00000E+00     0.00    0.00000E+00     0.00
 -180.00   345.00    -999.99 -999.99 -999.99    0.00000     0.00            4.27358E-12    56.56    0.00000E+00     0.00
 -175.00   345.00     -22.18 -999.99  -22.18    0.00000     0.00  LINEAR    3.65639E-02  -123.45    0.00000E+00     0.00
 -170.00   345.00     -16.14 -999.99  -16.14    0.00000     0.00  LINEAR    7.32761E-02  -123.45    0.00000E+00     0.00
 -165.00   345.00     -12.59 -999.99  -12.59    0.00000     0.00  LINEAR    1.10260E-01  -123.46    0.00000E+00     0.00
 -160.00   345.00     -10.06 -999.99  -10.06    0.00000     0.00  LINEAR    1.47592E-01  -123.48    0.00000E+00     0.00
 -155.00   345.00      -8.08 -999.99   -8.08    0.00000     0.00  LINEAR    1.85277E-01  -123.50    0.00000E+00     0.00
 -150.00   345.00      -6.46 -999.99   -6.46    0.00000     0.00  LINEAR    2.23229E-01  -123.52    0.00000E+00     0.00
 -145.00   345.00      -5.10 -999.99   -5.10    0.00000     0.00  LINEAR    2.61259E-01  -123.54    0.00000E+00     0.00
 -140.00   345.00      -3.92 -999.99   -3.92    0.00000     0.00  LINEAR    2.99064E-01  -123.56    0.00000E+00     0.00
 -135.00   345.00      -2.91 -999.99   -2.91    0.00000     0.00  LINEAR    3.36223E-01  -123.59    0.00000E+00     0.00
 -130.00   345.00      -2.02 -999.99   -2.02    0.00000     0.00  LINEAR    3.72207E-01  -123.61    0.00000E+00     0.00
 -125.00   345.00      -1.26 -999.99   -1.26    0.00000     0.00  LINEAR    4.06389E-01  -123.63    0.00000E+00     0.00
 -120.00   345.00      -0.61 -999.99   -0.61    0.00000     0.00  LINEAR    4.38074E-01  -123.65    0.00000E+00     0.00
 -115.00   345.00      -0.06 -999.99   -0.06    0.00000     0.00  LINEAR    4.66532E-01  -123.67    0.00000E+00     0.00
 -110.00   345.00       0.38 -999.99    0.38    0.00000     0.00  LINEAR    4.91035E-01  -123.68    0.00000E+00     0.00
 -105.00   345.00       0.73 -999.99    0.73    0.00000     0.00  LINEAR    5.10905E-01  -123.69    0.00000E+00     0.00
 -100.00   345.00       0.97 -999.99    0.97    0.00000     0.00  LINEAR    5.25556E-01  -123.70    0.00000E+00     0.00
  -95.00   345.00       1.12 -999.99    1.12    0.00000     0.00  LINEAR    5.34537E-01  -123.71    0.00000E+00     0.00
  -90.00   345.00       1.17 -999.99    1.17    0.00000     0.00  LINEAR    5.37563E-01  -123.71    0.00000E+00     0.00
  -85.00   345.00       1.12 -999.99    1.12    0.00000     0.00  LINEAR    5.34537E-01  -123.71    0.00000E+00     0.00
  -80.00   345.00       0.97 -999.99    0.97    0.00000     0.00  LINEAR    5.25556E-01  -123.70    0.00000E+00     0.00
  -75.00   345.00       0.73 -999.99    0.73    0.00000     0.00  LINEAR    5.10905E-01  -123.69    0.00000E+00     0.00
  -70.00   345.00       0.38 -999.99    0.38    0.00000     0.00  LINEAR    4.91035E-01  -123.68    0.00000E+00     0.00
  -65.00   345.00      -0.06 -999.99   -0.06    0.00000     0.00  LINEAR    4.66532E-01  -123.67    0.00000E+00     0.00
  -60.00   345.00      -0.61 -999.99   -0.61    0.00000     0.00  LINEAR    4.38074E-01  -123.65    0.00000E+00     0.00
  -55.00   345.00      -1.26 -999.99   -1.26    0.00000     0.00  LINEAR    4.06389E-01  -123.63    0.00000E+00     0.00
  -50.00   345.00      -2.02 -999.99   -2.02    0.00000     0.00  LINEAR    3.72207E-01  -123.61    0.00000E+00     0.00
  -45.00   345.00      -2.91 -999.99   -2.91    0.00000     0.00  LINEAR    3.36223E-01  -123.59    0.00000E+00     0.00
  -40.00   345.00      -3.92 -999.99   -3.92    0.00000     0.00  LINEAR    2.99064E-01  -123.56    0.00000E+00     0.00
  -35.00   345.00      -5.10 -999.99   -5.10    0.00000     0.00  LINEAR    2.61259E-01  -123.54    0.00000E+00     0.00
  -30.00   345.00      -6.46 -999.99   -6.46    0.00000     0.00  LINEAR    2.23229E-01  -123.52    0.00000E+00     0.00
  -25.00   345.00      -8.08 -999.99   -8.08    0.00000     0.00  LINEAR    1.85277E-01  -123.50    0.00000E+00     0.00
  -20.00   345.00     -10.06 -999.99  -10.06    0.00000     0.00  LINEAR    1.47592E-01  -123.48    0.00000E+00     0.00
  -15.00   345.00     -12.59 -999.99  -12.59    0.00000     0.00  LINEAR    1.10260E-01  -123.46    0.00000E+00     0.00
  -10.00   345.00     -16.14 -999.99  -16.14    0.00000     0.00  LINEAR    7.32761E-02  -123.45    0.00000E+00     0.00
   -5.00   345.00     -22.18 -999.99  -22.18    0.00000     0.00  LINEAR    3.65639E-02  -123.45    0.00000E+00     0.00
    0.00   345.00    -999.99 -999.99 -999.99    0.00000     0.00            0.00000E+00     0.00    0.00000E+00     0.00
 -180.00   350.00    -999.99 -999.99 -999.99    0.00000     0.00            4.27358E-12    56.56    0.00000E+00     0.00
 -175.00   350.00     -22.18 -999.99  -22.18    0.00000     0.00  LINEAR    3.65639E-02  -123.45    0.00000E+00     0.00
 -170.00   350.00     -16.14 -999.99  -16.14    0.00000     0.00  LINEAR    7.32761E-02  -123.45    0.00000E+00     0.00
 -165.00   350.00     -12.59 -999.99  -12.59    0.00000     0.00  LINEAR    1.10260E-01  -123.46    0.00000E+00     0.00
 -160.00   350.00     -10.06 -999.99  -10.06    0.00000     0.00  LINEAR    1.47592E-01  -123.48    0.00000E+00     0.00
 -155.00   350.00      -8.08 -999.99   -8.08    0.00000     0.00  LINEAR    1.85277E-01  -123.50    0.00000E+00     0.00
 -150.00   350.00      -6.46 -999.99   -6.46    0.00000     0.00  LINEAR    2.23229E-01  -123.52    0.00000E+00     0.00
 -145.00   350.00      -5.10 -999.99   -5.10    0.00000     0.00  LINEAR    2.61259E-01  -123.54    0.00000E+00     0.00
 -140.00   350.00      -3.92 -999.99   -3.92    0.00000     0.00  LINEAR    2.99064E-01  -123.56    0.00000E+00     0.00
 -135.00   350.00      -2.91 -999.99   -2.91    0.00000     0.00  LINEAR    3.36223E-01  -123.59    0.00000E+00     0.00
 -130.00   350.00      -2.02 -999.99   -2.02    0.00000     0.00  LINEAR    3.72207E-01  -123.61    0.00000E+00     0.00
 -125.00   350.00      -1.26 -999.99   -1.26    0.00000     0.00  LINEAR    4.06389E-01  -123.63    0.00000E+00     0.00
 -120.00   350.00      -0.61 -999.99   -0.61    0.00000     0.00  LINEAR    4.38074E-01  -123.65    0.00000E+00     0.00
 -115.00   350.00      -0.06 -999.99   -0.06    0.00000     0.00  LINEAR    4.66532E-01  -123.67    0.00000E+00     0.00
 -110.00   350.00       0.38 -999.99    0.38    0.00000     0.00  LINEAR    4.91035E-01  -123.68    0.00000E+00     0.00
 -105.00   350.00       0.73 -999.99    0.73    0.00000     0.00  LINEAR    5.10905E-01  -123.69    0.00000E+00     0.00
 -100.00   350.00       0.97 -999.99    0.97    0.00000     0.00  LINEAR    5.25556E-01  -123.70    0.00000E+00     0.00
  -95.00   350.00       1.12 -999.99    1.12    0.00000     0.00  LINEAR    5.34537E-01  -123.71    0.00000E+00     0.00
  -90.00   350.00       1.17 -999.99    1.17    0.00000     0.00  LINEAR    5.37563E-01  -123.71    0.00000E+00     0.00
  -85.00   350.00       1.12 -999.99    1.12    0.00000     0.00  LINEAR    5.34537E-01  -123.71    0.00000E+00     0.00
  -80.00   350.00       0.97 -999.99    0.97    0.00000     0.00  LINEAR    5.25556E-01  -123.70    0.00000E+00     0.00
  -75.00   350.00       0.73 -999.99    0.73    0.00000     0.00  LINEAR    5.10905E-01  -123.69    0.00000E+00     0.00
  -70.00   350.00       0.38 -999.99    0.38    0.00000     0.00  LINEAR    4.91035E-01  -123.68    0.00000E+00     0.00
  -65.00   350.00      -0.06 -999.99   -0.06    0.00000     0.00  LINEAR    4.66532E-01  -123.67    0.00000E+00     0.00
  -60.00   350.00      -0.61 -999.99   -0.61    0.00000     0.00  LINEAR    4.38074E-01  -123.65    0.00000E+00     0.00
  -55.00   350.00      -1.26 -999.99   -1.26    0.00000     0.00  LINEAR    4.06389E-01  -123.63    0.00000E+00     0.00
  -50.00   350.00      -2.02 -999.99   -2.02    0.00000     0.00  LINEAR    3.72207E-01  -123.61    0.00000E+00     0.00
  -45.00   350.00      -2.91 -999.99   -2.91    0.00000     0.00  LINEAR    3.36223E-01  -123.59    0.00000E+00     0.00
  -40.00   350.00      -3.92 -999.99   -3.92    0.00000     0.00  LINEAR    2.99064E-01  -123.56    0.00000E+00     0.00
  -35.00   350.00      -5.10 -999.99   -5.10    0.00000     0.00  LINEAR    2.61259E-01  -123.54    0.00000E+00     0.00
  -30.00   350.00      -6.46 -999.99   -6.46    0.00000     0.00  LINEAR    2.23229E-01  -123.52    0.00000E+00     0.00
  -25.00   350.00      -8.08 -999.99   -8.08    0.00000     0.00  LINEAR    1.85277E-01  -123.50    0.00000E+00     0.00
  -20.00   350.00     -10.06 -999.99  -10.06    0.00000     0.00  LINEAR    1.47592E-01  -123.48    0.00000E+00     0.00
  -15.00   350.00     -12.59 -999.99  -12.59    0.00000     0.00  LINEAR    1.10260E-01  -123.46    0.00000E+00     0.00
  -10.00   350.00     -16.14 -999.99  -16.14    0.00000     0.00  LINEAR    7.32761E-02  -123.45    0.00000E+00     0.00
   -5.00   350.00     -22.18 -999.99  -22.18    0.00000     0.00  LINEAR    3.65639E-02  -123.45    0.00000E+00     0.00
    0.00   350.00    -999.99 -999.99 -999.99    0.00000     0.00            0.00000E+00     0.00    0.00000E+00     0.00
 -180.00   355.00    -999.99 -999.99 -999.99    0.00000     0.00            4.27358E-12    56.56    0.00000E+00     0.00
 -175.00   355.00     -22.18 -999.99  -22.18    0.00000     0.00  LINEAR    3.65639E-02  -123.45    0.00000E+00     0.00
 -170.00   355.00     -16.14 -999.99  -16.14    0.00000     0.00  LINEAR    7.32761E-02  -123.45    0.00000E+00     0.00
 -165.00   355.00     -12.59 -999.99  -12.59    0.00000     0.00  LINEAR    1.10260E-01  -123.46    0.00000E+00     0.00
 -160.00   355.00     -10.06 -999.99  -10.06    0.00000     0.00  LINEAR    1.47592E-01  -123.48    0.00000E+00     0.00
 -155.00   355.00      -8.08 -999.99   -8.08    0.00000     0.00  LINEAR    1.85277E-01  -123.50    0.00000E+00     0.00
 -150.00   355.00      -6.46 -999.99   -6.46    0.00000     0.00  LINEAR    2.23229E-01  -123.52    0.00000E+00     0.00
 -145.00   355.00      -5.10 -999.99   -5.10    0.00000     0.00  LINEAR    2.61259E-01  -123.54    0.00000E+00     0.00
 -140.00   355.00      -3.92 -999.99   -3.92    0.00000     0.00  LINEAR    2.99064E-01  -123.56    0.00000E+00     0.00
 -135.00   355.00      -2.91 -999.99   -2.91    0.00000     0.00  LINEAR    3.36223E-01  -123.59    0.00000E+00     0.00
 -130.00   355.00      -2.02 -999.99   -2.02    0.00000     0.00  LINEAR    3.72207E-01  -123.61    0.00000E+00     0.00
 -125.00   355.00      -1.26 -999.99   -1.26    0.00000     0.00  LINEAR    4.06389E-01  -123.63    0.00000E+00     0.00
 -120.00   355.00      -0.61 -999.99   -0.61    0.00000     0.00  LINEAR    4.38074E-01  -123.65    0.00000E+00     0.00
 -115.00   355.00      -0.06 -999.99   -0.06    0.00000     0.00  LINEAR    4.66532E-01  -123.67    0.00000E+00     0.00
 -110.00   355.00       0.38 -999.99    0.38    0.00000     0.00  LINEAR    4.91035E-01  -123.68    0.00000E+00     0.00
 -105.00   355.00       0.73 -999.99    0.73    0.00000     0.00  LINEAR    5.10905E-01  -123.69    0.00000E+00     0.00
 -100.00   355.00       0.97 -999.99    0.97    0.00000     0.00  LINEAR    5.25556E-01  -123.70    0.00000E+00     0.00
  -95.00   355.00       1.12 -999.99    1.12    0.00000     0.00  LINEAR    5.34537E-01  -123.71    0.00000E+00     0.00
  -90.00   355.00       1.17 -999.99    1.17    0.00000     0.00  LINEAR    5.37563E-01  -123.71    0.00000E+00     0.00
  -85.00   355.00       1.12 -999.99    1.12    0.00000     0.00  LINEAR    5.34537E-01  -123.71    0.00000E+00     0.00
  -80.00   355.00       0.97 -999.99    0.97    0.00000     0.00  LINEAR    5.25556E-01  -123.70    0.00000E+00     0.00
  -75.00   355.00       0.73 -999.99    0.73    0.00000     0.00  LINEAR    5.10905E-01  -123.69    0.00000E+00     0.00
  -70.00   355.00       0.38 -999.99    0.38    0.00000     0.00  LINEAR    4.91035E-01  -123.68    0.00000E+00     0.00
  -65.00   355.00      -0.06 -999.99   -0.06    0.00000     0.00  LINEAR    4.66532E-01  -123.67    0.00000E+00     0.00
  -60.00   355.00      -0.61 -999.99   -0.61    0.00000     0.00  LINEAR    4.38074E-01  -123.65    0.00000E+00     0.00
  -55.00   355.00      -1.26 -999.99   -1.26    0.00000     0.00  LINEAR    4.06389E-01  -123.63    0.00000E+00     0.00
  -50.00   355.00      -2.02 -999.99   -2.02    0.00000     0.00  LINEAR    3.72207E-01  -123.61    0.00000E+00     0.00
  -45.00   355.00      -2.91 -999.99   -2.91    0.00000     0.00  LINEAR    3.36223E-01  -123.59    0.00000E+00     0.00
  -40.00   355.00      -3.92 -999.99   -3.92    0.00000     0.00  LINEAR    2.99064E-01  -123.56    0.00000E+00     0.00
  -35.00   355.00      -5.10 -999.99   -5.10    0.00000     0.00  LINEAR    2.61259E-01  -123.54    0.00000E+00     0.00
  -30.00   355.00      -6.46 -999.99   -6.46    0.00000     0.00  LINEAR    2.23229E-01  -123.52    0.00000E+00     0.00
  -25.00   355.00      -8.08 -999.99   -8.08    0.00000     0.00  LINEAR    1.85277E-01  -123.50    0.00000E+00     0.00
  -20.00   355.00     -10.06 -999.99  -10.06    0.00000     0.00  LINEAR    1.47592E-01  -123.48    0.00000E+00     0.00
  -15.00   355.00     -12.59 -999.99  -12.59    0.00000     0.00  LINEAR    1.10260E-01  -123.46    0.00000E+00     0.00
  -10.00   355.00     -16.14 -999.99  -16.14    0.00000     0.00  LINEAR    7.32761E-02  -123.45    0.00000E+00     0.00
   -5.00   355.00     -22.18 -999.99  -22.18    0.00000     0.00  LINEAR    3.65639E-02  -123.45    0.00000E+00     0.00
    0.00   355.00    -999.99 -999.99 -999.99    0.00000     0.00            0.00000E+00     0.00    0.00000E+00     0.00
 -180.00   360.00    -999.99 -999.99 -999.99    0.00000     0.00            4.27358E-12    56.56    0.00000E+00     0.00
 -175.00   360.00     -22.18 -999.99  -22.18    0.00000     0.00  LINEAR    3.65639E-02  -123.45    0.00000E+00     0.00
 -170.00   360.00     -16.14 -999.99  -16.14    0.00000     0.00  LINEAR    7.32761E-02  -123.45    0.00000E+00     0.00
 -165.00   360.00     -12.59 -999.99  -12.59    0.00000     0.00  LINEAR    1.10260E-01  -123.46    0.00000E+00     0.00
 -160.00   360.00     -10.06 -999.99  -10.06    0.00000     0.00  LINEAR    1.47592E-01  -123.48    0.00000E+00     0.00
 -155.00   360.00      -8.08 -999.99   -8.08    0.00000     0.00  LINEAR    1.85277E-01  -123.50    0.00000E+00     0.00
 -150.00   360.00      -6.46 -999.99   -6.46    0.00000     0.00  LINEAR    2.23229E-01  -123.52    0.00000E+00     0.00
 -145.00   360.00      -5.10 -999.99   -5.10    0.00000     0.00  LINEAR    2.61259E-01  -123.54    0.00000E+00     0.00
 -140.00   360.00      -3.92 -999.99   -3.92    0.00000     0.00  LINEAR    2.99064E-01  -123.56    0.00000E+00     0.00
 -135.00   360.00      -2.91 -999.99   -2.91    0.00000     0.00  LINEAR    3.36223E-01  -123.59    0.00000E+00     0.00
 -130.00   360.00      -2.02 -999.99   -2.02    0.00000     0.00  LINEAR    3.72207E-01  -123.61    0.00000E+00     0.00
 -125.00   360.00      -1.26 -999.99   -1.26    0.00000     0.00  LINEAR    4.06389E-01  -123.63    0.00000E+00     0.00
 -120.00   360.00      -0.61 -999.99   -0.61    0.00000     0.00  LINEAR    4.38074E-01  -123.65    0.00000E+00     0.00
 -115.00   360.00      -0.06 -999.99   -0.06    0.00000     0.00  LINEAR    4.66532E-01  -123.67    0.00000E+00     0.00
 -110.00   360.00       0.38 -999.99    0.38    0.00000     0.00  LINEAR    4.91035E-01  -123.68    0.00000E+00     0.00
 -105.00   360.00       0.73 -999.99    0.73    0.00000     0.00  LINEAR    5.10905E-01  -123.69    0.00000E+00     0.00
 -100.00   360.00       0.97 -999.99    0.97    0.00000     0.00  LINEAR    5.25556E-01  -123.70    0.00000E+00     0.00
  -95.00   360.00       1.12 -999.99    1.12    0.00000     0.00  LINEAR    5.34537E-01  -123.71    0.00000E+00     0.00
  -90.00   360.00       1.17 -999.99    1.17    0.00000     0.00  LINEAR    5.37563E-01  -123.71    0.00000E+00     0.00
  -85.00   360.00       1.12 -999.99    1.12    0.00000     0.00  LINEAR    5.34537E-01  -123.71    0.00000E+00     0.00
  -80.00   360.00       0.97 -999.99    0.97    0.00000     0.00  LINEAR    5.25556E-01  -123.70    0.00000E+00     0.00
  -75.00   360.00       0.73 -999.99    0.73    0.00000     0.00  LINEAR    5.10905E-01  -123.69    0.00000E+00     0.00
  -70.00   360.00       0.38 -999.99    0.38    0.00000     0.00  LINEAR    4.91035E-01  -123.68    0.00000E+00     0.00
  -65.00   360.00      -0.06 -999.99   -0.06    0.00000     0.00  LINEAR    4.66532E-01  -123.67    0.00000E+00     0.00
  -60.00   360.00      -0.61 -999.99   -0.61    0.00000     0.00  LINEAR    4.38074E-01  -123.65    0.00000E+00     0.00
  -55.00   360.00      -1.26 -999.99   -1.26    0.00000     0.00  LINEAR    4.06389E-01  -123.63    0.00000E+00     0.00
  -50.00   360.00      -2.02 -999.99   -2.02    0.00000     0.00  LINEAR    3.72207E-01  -123.61    0.00000E+00     0.00
  -45.00   360.00      -2.91 -999.99   -2.91    0.00000     0.00  LINEAR    3.36223E-01  -123.59    0.00000E+00     0.00
  -40.00   360.00      -3.92 -999.99   -3.92    0.00000     0.00  LINEAR    2.99064E-01  -123.56    0.00000E+00     0.00
  -35.00   360.00      -5.10 -999.99   -5.10    0.00000     0.00  LINEAR    2.61259E-01  -123.54    0.00000E+00     0.00
  -30.00   360.00      -6.46 -999.99   -6.46    0.00000     0.00  LINEAR    2.23229E-01  -123.52    0.00000E+00     0.00
  -25.00   360.00      -8.08 -999.99   -8.08    0.00000     0.00  LINEAR    1.85277E-01  -123.50    0.00000E+00     0.00
  -20.00   360.00     -10.06 -999.99  -10.06    0.00000     0.00  LINEAR    1.47592E-01  -123.48    0.00000E+00     0.00
  -15.00   360.00     -12.59 -999.99  -12.59    0.00000     0.00  LINEAR    1.10260E-01  -123.46    0.00000E+00     0.00
  -10.00   360.00     -16.14 -999.99  -16.14    0.00000     0.00  LINEAR    7.32761E-02  -123.45    0.00000E+00     0.00
   -5.00   360.00     -22.18 -999.99  -22.18    0.00000     0.00  LINEAR    3.65639E-02  -123.45    0.00000E+00     0.00
    0.00   360.00    -999.99 -999.99 -999.99    0.00000     0.00            0.00000E+00     0.00    0.00000E+00     0.00


   AVERAGE POWER GAIN= 7.95489E-01       SOLID ANGLE USED IN AVERAGING=( 4.0000)*PI STERADIANS.








 ***** DATA CARD NO.  7   EN   0    37    73  1003 -1.80000E+02  0.00000E+00  5.00000E+00  5.00000E+00  0.00000E+00  0.00000E+00

 RUN TIME =     0.188
